Circuit: * D:\base\GIT\stm-svpwm\IR2101\Inverter_v5.asc

Warning: Multiple definitions of model "aons66402" Type: Vdmos1
V13: Removing PWL point (2.66668e-007,0)
V13: Removing PWL point (4.3467e-005,5)
V13: Removing PWL point (5.73337e-005,0)
V13: Removing PWL point (0.000143468,5)
V13: Removing PWL point (0.000157334,0)
V13: Removing PWL point (0.000243468,5)
V13: Removing PWL point (0.000257335,0)
V13: Removing PWL point (0.000343469,5)
V13: Removing PWL point (0.000357336,0)
V13: Removing PWL point (0.00044347,5)
V13: Removing PWL point (0.000457336,0)
V13: Removing PWL point (0.00054347,5)
V13: Removing PWL point (0.000557337,0)
V13: Removing PWL point (0.000643471,5)
V13: Removing PWL point (0.000657338,0)
V13: Removing PWL point (0.000743472,5)
V13: Removing PWL point (0.000757338,0)
V13: Removing PWL point (0.000843472,5)
V13: Removing PWL point (0.000857339,0)
V13: Removing PWL point (0.000943473,5)
V13: Removing PWL point (0.00095734,0)
V13: Removing PWL point (0.00104347,5)
V13: Removing PWL point (0.00105734,0)
V13: Removing PWL point (0.00114347,5)
V13: Removing PWL point (0.00115734,0)
V13: Removing PWL point (0.00124347,5)
V13: Removing PWL point (0.00125734,0)
V13: Removing PWL point (0.00134428,5)
V13: Removing PWL point (0.00135654,0)
V13: Removing PWL point (0.00144428,5)
V13: Removing PWL point (0.00145654,0)
V13: Removing PWL point (0.00154428,5)
V13: Removing PWL point (0.00155654,0)
V13: Removing PWL point (0.00164428,5)
V13: Removing PWL point (0.00165654,0)
V13: Removing PWL point (0.00174428,5)
V13: Removing PWL point (0.00175655,0)
V13: Removing PWL point (0.00184428,5)
V13: Removing PWL point (0.00185655,0)
V13: Removing PWL point (0.00194428,5)
V13: Removing PWL point (0.00195655,0)
V13: Removing PWL point (0.00204428,5)
V13: Removing PWL point (0.00205655,0)
V13: Removing PWL point (0.00214428,5)
V13: Removing PWL point (0.00215655,0)
V13: Removing PWL point (0.00224428,5)
V13: Removing PWL point (0.00225655,0)
V13: Removing PWL point (0.00234428,5)
V13: Removing PWL point (0.00235655,0)
V13: Removing PWL point (0.00244428,5)
V13: Removing PWL point (0.00245655,0)
V13: Removing PWL point (0.00254428,5)
V13: Removing PWL point (0.00255655,0)
V13: Removing PWL point (0.00264428,5)
V13: Removing PWL point (0.00265655,0)
V13: Removing PWL point (0.00274348,5)
V13: Removing PWL point (0.00275735,0)
V13: Removing PWL point (0.00284349,5)
V13: Removing PWL point (0.00285735,0)
V13: Removing PWL point (0.00294349,5)
V13: Removing PWL point (0.00295735,0)
V13: Removing PWL point (0.00304349,5)
V13: Removing PWL point (0.00305735,0)
V13: Removing PWL point (0.00314349,5)
V13: Removing PWL point (0.00315735,0)
V13: Removing PWL point (0.00324349,5)
V13: Removing PWL point (0.00325736,0)
V13: Removing PWL point (0.00334189,5)
V13: Removing PWL point (0.00335896,0)
V13: Removing PWL point (0.00344189,5)
V13: Removing PWL point (0.00345896,0)
V13: Removing PWL point (0.00354189,5)
V13: Removing PWL point (0.00355896,0)
V13: Removing PWL point (0.00364189,5)
V13: Removing PWL point (0.00365896,0)
V13: Removing PWL point (0.00374189,5)
V13: Removing PWL point (0.00375896,0)
V13: Removing PWL point (0.00384189,5)
V13: Removing PWL point (0.00385896,0)
V13: Removing PWL point (0.00394189,5)
V13: Removing PWL point (0.00395896,0)
V13: Removing PWL point (0.00404349,5)
V13: Removing PWL point (0.00405736,0)
V13: Removing PWL point (0.00414349,5)
V13: Removing PWL point (0.00415736,0)
V13: Removing PWL point (0.00424349,5)
V13: Removing PWL point (0.00425736,0)
V13: Removing PWL point (0.0043435,5)
V13: Removing PWL point (0.00435736,0)
V13: Removing PWL point (0.0044435,5)
V13: Removing PWL point (0.00445736,0)
V13: Removing PWL point (0.0045435,5)
V13: Removing PWL point (0.00455736,0)
V13: Removing PWL point (0.0046435,5)
V13: Removing PWL point (0.00465736,0)
V13: Removing PWL point (0.0047443,5)
V13: Removing PWL point (0.00475657,0)
V13: Removing PWL point (0.0048443,5)
V13: Removing PWL point (0.00485657,0)
V13: Removing PWL point (0.0049443,5)
V13: Removing PWL point (0.00495657,0)
V13: Removing PWL point (0.0050443,5)
V13: Removing PWL point (0.00505657,0)
V13: Removing PWL point (0.0051443,5)
V13: Removing PWL point (0.00515657,0)
V13: Removing PWL point (0.0052443,5)
V13: Removing PWL point (0.00525657,0)
V13: Removing PWL point (0.0053443,5)
V13: Removing PWL point (0.00535657,0)
V13: Removing PWL point (0.0054443,5)
V13: Removing PWL point (0.00545657,0)
V13: Removing PWL point (0.0055443,5)
V13: Removing PWL point (0.00555657,0)
V13: Removing PWL point (0.0056443,5)
V13: Removing PWL point (0.00565657,0)
V13: Removing PWL point (0.0057443,5)
V13: Removing PWL point (0.00575657,0)
V13: Removing PWL point (0.00584431,5)
V13: Removing PWL point (0.00585657,0)
V13: Removing PWL point (0.00594431,5)
V13: Removing PWL point (0.00595657,0)
V13: Removing PWL point (0.00604351,5)
V13: Removing PWL point (0.00605737,0)
V13: Removing PWL point (0.00614351,5)
V13: Removing PWL point (0.00615737,0)
V13: Removing PWL point (0.00624351,5)
V13: Removing PWL point (0.00625738,0)
V13: Removing PWL point (0.00634351,5)
V13: Removing PWL point (0.00635738,0)
V13: Removing PWL point (0.00644351,5)
V13: Removing PWL point (0.00645738,0)
V13: Removing PWL point (0.00654351,5)
V13: Removing PWL point (0.00655738,0)
V13: Removing PWL point (0.00664351,5)
V13: Removing PWL point (0.00665738,0)
V13: Removing PWL point (0.00674191,5)
V13: Removing PWL point (0.00675898,0)
V13: Removing PWL point (0.00684191,5)
V13: Removing PWL point (0.00685898,0)
V13: Removing PWL point (0.00694191,5)
V13: Removing PWL point (0.00695898,0)
V13: Removing PWL point (0.00704191,5)
V13: Removing PWL point (0.00705898,0)
V13: Removing PWL point (0.00714191,5)
V13: Removing PWL point (0.00715898,0)
V13: Removing PWL point (0.00724191,5)
V13: Removing PWL point (0.00725898,0)
V13: Removing PWL point (0.00733738,5)
V13: Removing PWL point (0.00736512,0)
V13: Removing PWL point (0.00743552,5)
V13: Removing PWL point (0.00746512,0)
V13: Removing PWL point (0.00753552,5)
V13: Removing PWL point (0.00756512,0)
V13: Removing PWL point (0.00763552,5)
V13: Removing PWL point (0.00766512,0)
V13: Removing PWL point (0.00773552,5)
V13: Removing PWL point (0.00776512,0)
V13: Removing PWL point (0.00783552,5)
V13: Removing PWL point (0.00786512,0)
V13: Removing PWL point (0.00793552,5)
V13: Removing PWL point (0.00796512,0)
V13: Removing PWL point (0.00802885,5)
V13: Removing PWL point (0.00807205,0)
V13: Removing PWL point (0.00812885,5)
V13: Removing PWL point (0.00817205,0)
V13: Removing PWL point (0.00822885,5)
V13: Removing PWL point (0.00827206,0)
V13: Removing PWL point (0.00832886,5)
V13: Removing PWL point (0.00837206,0)
V13: Removing PWL point (0.00842886,5)
V13: Removing PWL point (0.00847206,0)
V13: Removing PWL point (0.00852886,5)
V13: Removing PWL point (0.00857206,0)
V13: Removing PWL point (0.00862886,5)
V13: Removing PWL point (0.00867899,0)
V13: Removing PWL point (0.00872192,5)
V13: Removing PWL point (0.00877899,0)
V13: Removing PWL point (0.00882193,5)
V13: Removing PWL point (0.00887899,0)
V13: Removing PWL point (0.00892193,5)
V13: Removing PWL point (0.00897899,0)
V13: Removing PWL point (0.00902193,5)
V13: Removing PWL point (0.00907899,0)
V13: Removing PWL point (0.00912193,5)
V13: Removing PWL point (0.00917899,0)
V13: Removing PWL point (0.00922193,5)
V13: Removing PWL point (0.009279,0)
V13: Removing PWL point (0.00932193,5)
V13: Removing PWL point (0.00938566,0)
V13: Removing PWL point (0.00941526,5)
V13: Removing PWL point (0.00948566,0)
V13: Removing PWL point (0.00951526,5)
V13: Removing PWL point (0.00958566,0)
V13: Removing PWL point (0.00961526,5)
V13: Removing PWL point (0.00968566,0)
V13: Removing PWL point (0.00971526,5)
V13: Removing PWL point (0.00978567,0)
V13: Removing PWL point (0.00981527,5)
V13: Removing PWL point (0.00988567,0)
V13: Removing PWL point (0.00991527,5)
V13: Removing PWL point (0.00998567,0)
V13: Removing PWL point (0.0100089,5)
V13: Removing PWL point (0.0100918,0)
V13: Removing PWL point (0.0101089,5)
V13: Removing PWL point (0.0101918,0)
V13: Removing PWL point (0.0102089,5)
V13: Removing PWL point (0.0102918,0)
V13: Removing PWL point (0.0103089,5)
V13: Removing PWL point (0.0103918,0)
V13: Removing PWL point (0.0104089,5)
V13: Removing PWL point (0.0104918,0)
V13: Removing PWL point (0.0105089,5)
V13: Removing PWL point (0.0105918,0)
V13: Removing PWL point (0.0106089,5)
V13: Removing PWL point (0.0106934,0)
V13: Removing PWL point (0.0107073,5)
V13: Removing PWL point (0.0107934,0)
V13: Removing PWL point (0.0108073,5)
V13: Removing PWL point (0.0108934,0)
V13: Removing PWL point (0.0109073,5)
V13: Removing PWL point (0.0109934,0)
V13: Removing PWL point (0.0110073,5)
V13: Removing PWL point (0.0110934,0)
V13: Removing PWL point (0.0111073,5)
V13: Removing PWL point (0.0111934,0)
V13: Removing PWL point (0.0112073,5)
V13: Removing PWL point (0.0112934,0)
V13: Removing PWL point (0.0113073,5)
V13: Removing PWL point (0.0113945,0)
V13: Removing PWL point (0.0114065,5)
V13: Removing PWL point (0.0114945,0)
V13: Removing PWL point (0.0115065,5)
V13: Removing PWL point (0.0115945,0)
V13: Removing PWL point (0.0116065,5)
V13: Removing PWL point (0.0116945,0)
V13: Removing PWL point (0.0117065,5)
V13: Removing PWL point (0.0117945,0)
V13: Removing PWL point (0.0118065,5)
V13: Removing PWL point (0.0118945,0)
V13: Removing PWL point (0.0119065,5)
V13: Removing PWL point (0.0119945,0)
V13: Removing PWL point (0.0120065,5)
V13: Removing PWL point (0.0120942,0)
V13: Removing PWL point (0.0121065,5)
V13: Removing PWL point (0.0121942,0)
V13: Removing PWL point (0.0122065,5)
V13: Removing PWL point (0.0122942,0)
V13: Removing PWL point (0.0123065,5)
V13: Removing PWL point (0.0123942,0)
V13: Removing PWL point (0.0124065,5)
V13: Removing PWL point (0.0124942,0)
V13: Removing PWL point (0.0125065,5)
V13: Removing PWL point (0.0125942,0)
V13: Removing PWL point (0.0126065,5)
V13: Removing PWL point (0.0126934,0)
V13: Removing PWL point (0.0127073,5)
V13: Removing PWL point (0.0127934,0)
V13: Removing PWL point (0.0128073,5)
V13: Removing PWL point (0.0128934,0)
V13: Removing PWL point (0.0129073,5)
V13: Removing PWL point (0.0129934,0)
V13: Removing PWL point (0.0130073,5)
V13: Removing PWL point (0.0130934,0)
V13: Removing PWL point (0.0131073,5)
V13: Removing PWL point (0.0131934,0)
V13: Removing PWL point (0.0132073,5)
V13: Removing PWL point (0.0132934,0)
V13: Removing PWL point (0.0133073,5)
V13: Removing PWL point (0.0133918,0)
V13: Removing PWL point (0.0134089,5)
V13: Removing PWL point (0.0134918,0)
V13: Removing PWL point (0.0135089,5)
V13: Removing PWL point (0.0135918,0)
V13: Removing PWL point (0.0136089,5)
V13: Removing PWL point (0.0136918,0)
V13: Removing PWL point (0.0137089,5)
V13: Removing PWL point (0.0137918,0)
V13: Removing PWL point (0.0138089,5)
V13: Removing PWL point (0.0138918,0)
V13: Removing PWL point (0.0139089,5)
V13: Removing PWL point (0.0139918,0)
V13: Removing PWL point (0.0140073,5)
V13: Removing PWL point (0.0140934,0)
V13: Removing PWL point (0.0141073,5)
V13: Removing PWL point (0.0141934,0)
V13: Removing PWL point (0.0142073,5)
V13: Removing PWL point (0.0142934,0)
V13: Removing PWL point (0.0143073,5)
V13: Removing PWL point (0.0143934,0)
V13: Removing PWL point (0.0144073,5)
V13: Removing PWL point (0.0144934,0)
V13: Removing PWL point (0.0145073,5)
V13: Removing PWL point (0.0145934,0)
V13: Removing PWL point (0.0146073,5)
V13: Removing PWL point (0.0146942,0)
V13: Removing PWL point (0.0147065,5)
V13: Removing PWL point (0.0147942,0)
V13: Removing PWL point (0.0148065,5)
V13: Removing PWL point (0.0148942,0)
V13: Removing PWL point (0.0149065,5)
V13: Removing PWL point (0.0149942,0)
V13: Removing PWL point (0.0150065,5)
V13: Removing PWL point (0.0150942,0)
V13: Removing PWL point (0.0151065,5)
V13: Removing PWL point (0.0151942,0)
V13: Removing PWL point (0.0152065,5)
V13: Removing PWL point (0.0152942,0)
V13: Removing PWL point (0.0153065,5)
V13: Removing PWL point (0.0153942,0)
V13: Removing PWL point (0.0154065,5)
V13: Removing PWL point (0.0154942,0)
V13: Removing PWL point (0.0155065,5)
V13: Removing PWL point (0.0155942,0)
V13: Removing PWL point (0.0156065,5)
V13: Removing PWL point (0.0156942,0)
V13: Removing PWL point (0.0157065,5)
V13: Removing PWL point (0.0157942,0)
V13: Removing PWL point (0.0158065,5)
V13: Removing PWL point (0.0158942,0)
V13: Removing PWL point (0.0159065,5)
V13: Removing PWL point (0.0159942,0)
V13: Removing PWL point (0.0160065,5)
V13: Removing PWL point (0.0160934,0)
V13: Removing PWL point (0.0161073,5)
V13: Removing PWL point (0.0161934,0)
V13: Removing PWL point (0.0162073,5)
V13: Removing PWL point (0.0162934,0)
V13: Removing PWL point (0.0163073,5)
V13: Removing PWL point (0.0163934,0)
V13: Removing PWL point (0.0164073,5)
V13: Removing PWL point (0.0164934,0)
V13: Removing PWL point (0.0165073,5)
V13: Removing PWL point (0.0165934,0)
V13: Removing PWL point (0.0166073,5)
V13: Removing PWL point (0.0166918,0)
V13: Removing PWL point (0.0167089,5)
V13: Removing PWL point (0.0167918,0)
V13: Removing PWL point (0.0168089,5)
V13: Removing PWL point (0.0168918,0)
V13: Removing PWL point (0.0169089,5)
V13: Removing PWL point (0.0169918,0)
V13: Removing PWL point (0.0170089,5)
V13: Removing PWL point (0.0170918,0)
V13: Removing PWL point (0.0171089,5)
V13: Removing PWL point (0.0171918,0)
V13: Removing PWL point (0.0172089,5)
V13: Removing PWL point (0.0172918,0)
V13: Removing PWL point (0.0173089,5)
V13: Removing PWL point (0.0173854,0)
V13: Removing PWL point (0.0174153,5)
V13: Removing PWL point (0.0174854,0)
V13: Removing PWL point (0.0175153,5)
V13: Removing PWL point (0.0175855,0)
V13: Removing PWL point (0.0176153,5)
V13: Removing PWL point (0.0176855,0)
V13: Removing PWL point (0.0177153,5)
V13: Removing PWL point (0.0177855,0)
V13: Removing PWL point (0.0178153,5)
V13: Removing PWL point (0.0178855,0)
V13: Removing PWL point (0.0179153,5)
V13: Removing PWL point (0.0179855,0)
V13: Removing PWL point (0.018022,5)
V13: Removing PWL point (0.0180788,0)
V13: Removing PWL point (0.018122,5)
V13: Removing PWL point (0.0181788,0)
V13: Removing PWL point (0.018222,5)
V13: Removing PWL point (0.0182788,0)
V13: Removing PWL point (0.018322,5)
V13: Removing PWL point (0.0183788,0)
V13: Removing PWL point (0.018422,5)
V13: Removing PWL point (0.0184788,0)
V13: Removing PWL point (0.018522,5)
V13: Removing PWL point (0.0185788,0)
V13: Removing PWL point (0.018622,5)
V13: Removing PWL point (0.0186764,0)
V13: Removing PWL point (0.0187289,5)
V13: Removing PWL point (0.0187719,0)
V13: Removing PWL point (0.0188289,5)
V13: Removing PWL point (0.0188719,0)
V13: Removing PWL point (0.0189289,5)
V13: Removing PWL point (0.0189719,0)
V13: Removing PWL point (0.0190289,5)
V13: Removing PWL point (0.0190719,0)
V13: Removing PWL point (0.0191289,5)
V13: Removing PWL point (0.0191719,0)
V13: Removing PWL point (0.0192289,5)
V13: Removing PWL point (0.0192719,0)
V13: Removing PWL point (0.0193289,5)
V13: Removing PWL point (0.0193652,0)
V13: Removing PWL point (0.0194356,5)
V13: Removing PWL point (0.0194652,0)
V13: Removing PWL point (0.0195356,5)
V13: Removing PWL point (0.0195652,0)
V13: Removing PWL point (0.0196356,5)
V13: Removing PWL point (0.0196652,0)
V13: Removing PWL point (0.0197356,5)
V13: Removing PWL point (0.0197652,0)
V13: Removing PWL point (0.0198356,5)
V13: Removing PWL point (0.0198652,0)
V13: Removing PWL point (0.0199356,5)
V13: Removing PWL point (0.0199652,0)
V13: Removing PWL point (0.020042,5)
V13: Removing PWL point (0.0200588,0)
V13: Removing PWL point (0.020142,5)
V13: Removing PWL point (0.0201588,0)
V13: Removing PWL point (0.020242,5)
V13: Removing PWL point (0.0202588,0)
V13: Removing PWL point (0.020342,5)
V13: Removing PWL point (0.0203588,0)
V13: Removing PWL point (0.020442,5)
V13: Removing PWL point (0.0204588,0)
V13: Removing PWL point (0.020542,5)
V13: Removing PWL point (0.0205588,0)
V13: Removing PWL point (0.020642,5)
V13: Removing PWL point (0.0206588,0)
V13: Removing PWL point (0.0207436,5)
V13: Removing PWL point (0.0207572,0)
V13: Removing PWL point (0.0208436,5)
V13: Removing PWL point (0.0208572,0)
V13: Removing PWL point (0.0209436,5)
V13: Removing PWL point (0.0209572,0)
V13: Removing PWL point (0.0210436,5)
V13: Removing PWL point (0.0210572,0)
V13: Removing PWL point (0.0211436,5)
V13: Removing PWL point (0.0211572,0)
V13: Removing PWL point (0.0212436,5)
V13: Removing PWL point (0.0212572,0)
V13: Removing PWL point (0.0213436,5)
V13: Removing PWL point (0.0213564,0)
V13: Removing PWL point (0.0214444,5)
V13: Removing PWL point (0.0214564,0)
V13: Removing PWL point (0.0215444,5)
V13: Removing PWL point (0.0215564,0)
V13: Removing PWL point (0.0216444,5)
V13: Removing PWL point (0.0216564,0)
V13: Removing PWL point (0.0217444,5)
V13: Removing PWL point (0.0217564,0)
V13: Removing PWL point (0.0218444,5)
V13: Removing PWL point (0.0218564,0)
V13: Removing PWL point (0.0219444,5)
V13: Removing PWL point (0.0219564,0)
V13: Removing PWL point (0.0220444,5)
V13: Removing PWL point (0.0220564,0)
V13: Removing PWL point (0.0221444,5)
V13: Removing PWL point (0.0221564,0)
V13: Removing PWL point (0.0222444,5)
V13: Removing PWL point (0.0222564,0)
V13: Removing PWL point (0.0223444,5)
V13: Removing PWL point (0.0223564,0)
V13: Removing PWL point (0.0224444,5)
V13: Removing PWL point (0.0224564,0)
V13: Removing PWL point (0.0225444,5)
V13: Removing PWL point (0.0225564,0)
V13: Removing PWL point (0.0226444,5)
V13: Removing PWL point (0.0226564,0)
V13: Removing PWL point (0.0227436,5)
V13: Removing PWL point (0.0227572,0)
V13: Removing PWL point (0.0228436,5)
V13: Removing PWL point (0.0228572,0)
V13: Removing PWL point (0.0229436,5)
V13: Removing PWL point (0.0229572,0)
V13: Removing PWL point (0.0230436,5)
V13: Removing PWL point (0.0230572,0)
V13: Removing PWL point (0.0231436,5)
V13: Removing PWL point (0.0231572,0)
V13: Removing PWL point (0.0232436,5)
V13: Removing PWL point (0.0232572,0)
V13: Removing PWL point (0.0233436,5)
V13: Removing PWL point (0.0233588,0)
V13: Removing PWL point (0.023442,5)
V13: Removing PWL point (0.0234588,0)
V13: Removing PWL point (0.023542,5)
V13: Removing PWL point (0.0235588,0)
V13: Removing PWL point (0.023642,5)
V13: Removing PWL point (0.0236588,0)
V13: Removing PWL point (0.023742,5)
V13: Removing PWL point (0.0237588,0)
V13: Removing PWL point (0.023842,5)
V13: Removing PWL point (0.0238588,0)
V13: Removing PWL point (0.023942,5)
V13: Removing PWL point (0.0239588,0)
V13: Removing PWL point (0.0240436,5)
V13: Removing PWL point (0.0240572,0)
V13: Removing PWL point (0.0241436,5)
V13: Removing PWL point (0.0241572,0)
V13: Removing PWL point (0.0242436,5)
V13: Removing PWL point (0.0242572,0)
V13: Removing PWL point (0.0243436,5)
V13: Removing PWL point (0.0243572,0)
V13: Removing PWL point (0.0244436,5)
V13: Removing PWL point (0.0244572,0)
V13: Removing PWL point (0.0245436,5)
V13: Removing PWL point (0.0245572,0)
V13: Removing PWL point (0.0246436,5)
V13: Removing PWL point (0.0246572,0)
V13: Removing PWL point (0.0247444,5)
V13: Removing PWL point (0.0247564,0)
V13: Removing PWL point (0.0248444,5)
V13: Removing PWL point (0.0248564,0)
V13: Removing PWL point (0.0249444,5)
V13: Removing PWL point (0.0249564,0)
V13: Removing PWL point (0.0250444,5)
V13: Removing PWL point (0.0250564,0)
V13: Removing PWL point (0.0251444,5)
V13: Removing PWL point (0.0251564,0)
V13: Removing PWL point (0.0252444,5)
V13: Removing PWL point (0.0252564,0)
V13: Removing PWL point (0.0253444,5)
V13: Removing PWL point (0.0253564,0)
V13: Removing PWL point (0.0254444,5)
V13: Removing PWL point (0.0254564,0)
V13: Removing PWL point (0.0255444,5)
V13: Removing PWL point (0.0255564,0)
V13: Removing PWL point (0.0256444,5)
V13: Removing PWL point (0.0256564,0)
V13: Removing PWL point (0.0257444,5)
V13: Removing PWL point (0.0257564,0)
V13: Removing PWL point (0.0258444,5)
V13: Removing PWL point (0.0258564,0)
V13: Removing PWL point (0.0259444,5)
V13: Removing PWL point (0.0259564,0)
V13: Removing PWL point (0.0260434,5)
V13: Removing PWL point (0.0260572,0)
V13: Removing PWL point (0.0261434,5)
V13: Removing PWL point (0.0261572,0)
V13: Removing PWL point (0.0262434,5)
V13: Removing PWL point (0.0262572,0)
V13: Removing PWL point (0.0263434,5)
V13: Removing PWL point (0.0263572,0)
V13: Removing PWL point (0.0264434,5)
V13: Removing PWL point (0.0264572,0)
V13: Removing PWL point (0.0265434,5)
V13: Removing PWL point (0.0265572,0)
V13: Removing PWL point (0.0266434,5)
V13: Removing PWL point (0.0266572,0)
V13: Removing PWL point (0.0267418,5)
V13: Removing PWL point (0.0267591,0)
V13: Removing PWL point (0.0268418,5)
V13: Removing PWL point (0.0268591,0)
V13: Removing PWL point (0.0269418,5)
V13: Removing PWL point (0.0269591,0)
V13: Removing PWL point (0.0270418,5)
V13: Removing PWL point (0.0270591,0)
V13: Removing PWL point (0.0271418,5)
V13: Removing PWL point (0.0271591,0)
V13: Removing PWL point (0.0272418,5)
V13: Removing PWL point (0.0272591,0)
V13: Removing PWL point (0.0273418,5)
V13: Removing PWL point (0.0273652,0)
V13: Removing PWL point (0.0274354,5)
V13: Removing PWL point (0.0274652,0)
V13: Removing PWL point (0.0275354,5)
V13: Removing PWL point (0.0275653,0)
V13: Removing PWL point (0.0276354,5)
V13: Removing PWL point (0.0276653,0)
V13: Removing PWL point (0.0277354,5)
V13: Removing PWL point (0.0277653,0)
V13: Removing PWL point (0.0278354,5)
V13: Removing PWL point (0.0278653,0)
V13: Removing PWL point (0.0279354,5)
V13: Removing PWL point (0.0279653,0)
V13: Removing PWL point (0.0280287,5)
V13: Removing PWL point (0.0280722,0)
V13: Removing PWL point (0.0281287,5)
V13: Removing PWL point (0.0281722,0)
V13: Removing PWL point (0.0282287,5)
V13: Removing PWL point (0.0282722,0)
V13: Removing PWL point (0.0283287,5)
V13: Removing PWL point (0.0283722,0)
V13: Removing PWL point (0.0284287,5)
V13: Removing PWL point (0.0284722,0)
V13: Removing PWL point (0.0285287,5)
V13: Removing PWL point (0.0285722,0)
V13: Removing PWL point (0.0286287,5)
V13: Removing PWL point (0.0286722,0)
V13: Removing PWL point (0.0287218,5)
V13: Removing PWL point (0.0287791,0)
V13: Removing PWL point (0.0288218,5)
V13: Removing PWL point (0.0288791,0)
V13: Removing PWL point (0.0289218,5)
V13: Removing PWL point (0.0289791,0)
V13: Removing PWL point (0.0290218,5)
V13: Removing PWL point (0.0290791,0)
V13: Removing PWL point (0.0291218,5)
V13: Removing PWL point (0.0291791,0)
V13: Removing PWL point (0.0292218,5)
V13: Removing PWL point (0.0292791,0)
V13: Removing PWL point (0.0293218,5)
V13: Removing PWL point (0.0293858,0)
V13: Removing PWL point (0.0294151,5)
V13: Removing PWL point (0.0294858,0)
V13: Removing PWL point (0.0295151,5)
V13: Removing PWL point (0.0295858,0)
V13: Removing PWL point (0.0296151,5)
V13: Removing PWL point (0.0296858,0)
V13: Removing PWL point (0.0297151,5)
V13: Removing PWL point (0.0297858,0)
V13: Removing PWL point (0.0298151,5)
V13: Removing PWL point (0.0298858,0)
V13: Removing PWL point (0.0299151,5)
V13: Removing PWL point (0.0299858,0)
V13: Removing PWL point (0.0300151,5)
V13: Removing PWL point (0.0300919,0)
V13: Removing PWL point (0.0301087,5)
V13: Removing PWL point (0.0301919,0)
V13: Removing PWL point (0.0302087,5)
V13: Removing PWL point (0.0302919,0)
V13: Removing PWL point (0.0303087,5)
V13: Removing PWL point (0.0303919,0)
V13: Removing PWL point (0.0304087,5)
V13: Removing PWL point (0.0304919,0)
V13: Removing PWL point (0.0305087,5)
V13: Removing PWL point (0.0305919,0)
V13: Removing PWL point (0.0306087,5)
V13: Removing PWL point (0.0306935,0)
V13: Removing PWL point (0.0307071,5)
V13: Removing PWL point (0.0307935,0)
V13: Removing PWL point (0.0308071,5)
V13: Removing PWL point (0.0308935,0)
V13: Removing PWL point (0.0309071,5)
V13: Removing PWL point (0.0309935,0)
V13: Removing PWL point (0.0310071,5)
V13: Removing PWL point (0.0310935,0)
V13: Removing PWL point (0.0311071,5)
V13: Removing PWL point (0.0311935,0)
V13: Removing PWL point (0.0312071,5)
V13: Removing PWL point (0.0312935,0)
V13: Removing PWL point (0.0313071,5)
V13: Removing PWL point (0.0313943,0)
V13: Removing PWL point (0.0314063,5)
V13: Removing PWL point (0.0314943,0)
V13: Removing PWL point (0.0315063,5)
V13: Removing PWL point (0.0315943,0)
V13: Removing PWL point (0.0316063,5)
V13: Removing PWL point (0.0316943,0)
V13: Removing PWL point (0.0317063,5)
V13: Removing PWL point (0.0317943,0)
V13: Removing PWL point (0.0318063,5)
V13: Removing PWL point (0.0318943,0)
V13: Removing PWL point (0.0319063,5)
V13: Removing PWL point (0.0319943,0)
V13: Removing PWL point (0.0320063,5)
V13: Removing PWL point (0.0320943,0)
V13: Removing PWL point (0.0321063,5)
V13: Removing PWL point (0.0321943,0)
V13: Removing PWL point (0.0322063,5)
V13: Removing PWL point (0.0322943,0)
V13: Removing PWL point (0.0323063,5)
V13: Removing PWL point (0.0323943,0)
V13: Removing PWL point (0.0324063,5)
V13: Removing PWL point (0.0324943,0)
V13: Removing PWL point (0.0325064,5)
V13: Removing PWL point (0.0325944,0)
V13: Removing PWL point (0.0326064,5)
V13: Removing PWL point (0.0326936,0)
V13: Removing PWL point (0.0327074,5)
V13: Removing PWL point (0.0327936,0)
V13: Removing PWL point (0.0328074,5)
V13: Removing PWL point (0.0328936,0)
V13: Removing PWL point (0.0329074,5)
V13: Removing PWL point (0.0329936,0)
V13: Removing PWL point (0.0330074,5)
V13: Removing PWL point (0.0330936,0)
V13: Removing PWL point (0.0331074,5)
V13: Removing PWL point (0.0331936,0)
V13: Removing PWL point (0.0332074,5)
V13: Removing PWL point (0.0332936,0)
V13: Removing PWL point (0.0333074,5)
V13: Removing PWL point (0.033392,0)
V13: Removing PWL point (0.0334088,5)
V13: Removing PWL point (0.033492,0)
V13: Removing PWL point (0.0335088,5)
V13: Removing PWL point (0.033592,0)
V13: Removing PWL point (0.0336088,5)
V13: Removing PWL point (0.033692,0)
V13: Removing PWL point (0.0337088,5)
V13: Removing PWL point (0.033792,0)
V13: Removing PWL point (0.0338088,5)
V13: Removing PWL point (0.033892,0)
V13: Removing PWL point (0.0339088,5)
V13: Removing PWL point (0.033992,0)
V13: Removing PWL point (0.0340088,5)
V13: Removing PWL point (0.0340936,0)
V13: Removing PWL point (0.0341072,5)
V13: Removing PWL point (0.0341936,0)
V13: Removing PWL point (0.0342072,5)
V13: Removing PWL point (0.0342936,0)
V13: Removing PWL point (0.0343072,5)
V13: Removing PWL point (0.0343936,0)
V13: Removing PWL point (0.0344072,5)
V13: Removing PWL point (0.0344936,0)
V13: Removing PWL point (0.0345072,5)
V13: Removing PWL point (0.0345936,0)
V13: Removing PWL point (0.0346072,5)
V13: Removing PWL point (0.0346944,0)
V13: Removing PWL point (0.0347064,5)
V13: Removing PWL point (0.0347944,0)
V13: Removing PWL point (0.0348064,5)
V13: Removing PWL point (0.0348944,0)
V13: Removing PWL point (0.0349064,5)
V13: Removing PWL point (0.0349944,0)
V13: Removing PWL point (0.0350064,5)
V13: Removing PWL point (0.0350944,0)
V13: Removing PWL point (0.0351064,5)
V13: Removing PWL point (0.0351944,0)
V13: Removing PWL point (0.0352064,5)
V13: Removing PWL point (0.0352944,0)
V13: Removing PWL point (0.0353064,5)
V13: Removing PWL point (0.0353944,0)
V13: Removing PWL point (0.0354064,5)
V13: Removing PWL point (0.0354944,0)
V13: Removing PWL point (0.0355064,5)
V13: Removing PWL point (0.0355944,0)
V13: Removing PWL point (0.0356064,5)
V13: Removing PWL point (0.0356944,0)
V13: Removing PWL point (0.0357064,5)
V13: Removing PWL point (0.0357944,0)
V13: Removing PWL point (0.0358064,5)
V13: Removing PWL point (0.0358944,0)
V13: Removing PWL point (0.0359064,5)
V13: Removing PWL point (0.0359944,0)
V13: Removing PWL point (0.0360064,5)
V13: Removing PWL point (0.0360936,0)
V13: Removing PWL point (0.0361074,5)
V13: Removing PWL point (0.0361936,0)
V13: Removing PWL point (0.0362074,5)
V13: Removing PWL point (0.0362936,0)
V13: Removing PWL point (0.0363074,5)
V13: Removing PWL point (0.0363936,0)
V13: Removing PWL point (0.0364074,5)
V13: Removing PWL point (0.0364936,0)
V13: Removing PWL point (0.0365074,5)
V13: Removing PWL point (0.0365936,0)
V13: Removing PWL point (0.0366074,5)
V13: Removing PWL point (0.0366917,0)
V13: Removing PWL point (0.036709,5)
V13: Removing PWL point (0.0367917,0)
V13: Removing PWL point (0.036809,5)
V13: Removing PWL point (0.0368917,0)
V13: Removing PWL point (0.036909,5)
V13: Removing PWL point (0.0369917,0)
V13: Removing PWL point (0.037009,5)
V13: Removing PWL point (0.0370917,0)
V13: Removing PWL point (0.037109,5)
V13: Removing PWL point (0.0371917,0)
V13: Removing PWL point (0.037209,5)
V13: Removing PWL point (0.0372917,0)
V13: Removing PWL point (0.037309,5)
V13: Removing PWL point (0.0373853,0)
V13: Removing PWL point (0.0374154,5)
V13: Removing PWL point (0.0374853,0)
V13: Removing PWL point (0.0375155,5)
V13: Removing PWL point (0.0375853,0)
V13: Removing PWL point (0.0376155,5)
V13: Removing PWL point (0.0376853,0)
V13: Removing PWL point (0.0377155,5)
V13: Removing PWL point (0.0377853,0)
V13: Removing PWL point (0.0378155,5)
V13: Removing PWL point (0.0378853,0)
V13: Removing PWL point (0.0379155,5)
V13: Removing PWL point (0.0379853,0)
V13: Removing PWL point (0.0380155,5)
V13: Removing PWL point (0.0380195,0)
V13: Removing PWL point (0.0380221,5)
V13: Removing PWL point (0.0380787,0)
V13: Removing PWL point (0.0381221,5)
V13: Removing PWL point (0.0381787,0)
V13: Removing PWL point (0.0382221,5)
V13: Removing PWL point (0.0382787,0)
V13: Removing PWL point (0.0383221,5)
V13: Removing PWL point (0.0383787,0)
V13: Removing PWL point (0.0384221,5)
V13: Removing PWL point (0.0384787,0)
V13: Removing PWL point (0.0385221,5)
V13: Removing PWL point (0.0385787,0)
V13: Removing PWL point (0.0386221,5)
V13: Removing PWL point (0.0386787,0)
V13: Removing PWL point (0.0387291,5)
V13: Removing PWL point (0.0387717,0)
V13: Removing PWL point (0.0388291,5)
V13: Removing PWL point (0.0388717,0)
V13: Removing PWL point (0.0389291,5)
V13: Removing PWL point (0.0389717,0)
V13: Removing PWL point (0.0390291,5)
V13: Removing PWL point (0.0390717,0)
V13: Removing PWL point (0.0391291,5)
V13: Removing PWL point (0.0391717,0)
V13: Removing PWL point (0.0392291,5)
V13: Removing PWL point (0.0392717,0)
V13: Removing PWL point (0.0393291,5)
V13: Removing PWL point (0.0393651,0)
V13: Removing PWL point (0.0394357,5)
V13: Removing PWL point (0.0394651,0)
V13: Removing PWL point (0.0395357,5)
V13: Removing PWL point (0.0395651,0)
V13: Removing PWL point (0.0396357,5)
V13: Removing PWL point (0.0396651,0)
V13: Removing PWL point (0.0397357,5)
V13: Removing PWL point (0.0397651,0)
V13: Removing PWL point (0.0398357,5)
V13: Removing PWL point (0.0398651,0)
V13: Removing PWL point (0.0399357,5)
V13: Removing PWL point (0.0399651,0)
V12: Removing PWL point (2.66668e-007,0)
V12: Removing PWL point (3.54669e-005,5)
V12: Removing PWL point (6.53338e-005,0)
V12: Removing PWL point (0.000135468,5)
V12: Removing PWL point (0.000165334,0)
V12: Removing PWL point (0.000235468,5)
V12: Removing PWL point (0.000265335,0)
V12: Removing PWL point (0.000335469,5)
V12: Removing PWL point (0.000365336,0)
V12: Removing PWL point (0.00043547,5)
V12: Removing PWL point (0.000465336,0)
V12: Removing PWL point (0.00053547,5)
V12: Removing PWL point (0.000565337,0)
V12: Removing PWL point (0.000635471,5)
V12: Removing PWL point (0.000665338,0)
V12: Removing PWL point (0.000735472,5)
V12: Removing PWL point (0.000765338,0)
V12: Removing PWL point (0.000835472,5)
V12: Removing PWL point (0.000865072,0)
V12: Removing PWL point (0.000935473,5)
V12: Removing PWL point (0.000965073,0)
V12: Removing PWL point (0.00103547,5)
V12: Removing PWL point (0.00106507,0)
V12: Removing PWL point (0.00113547,5)
V12: Removing PWL point (0.00116507,0)
V12: Removing PWL point (0.00123547,5)
V12: Removing PWL point (0.00126508,0)
V12: Removing PWL point (0.00133441,5)
V12: Removing PWL point (0.00137201,0)
V12: Removing PWL point (0.00142881,5)
V12: Removing PWL point (0.00147201,0)
V12: Removing PWL point (0.00152881,5)
V12: Removing PWL point (0.00157201,0)
V12: Removing PWL point (0.00162881,5)
V12: Removing PWL point (0.00167201,0)
V12: Removing PWL point (0.00172881,5)
V12: Removing PWL point (0.00177201,0)
V12: Removing PWL point (0.00182881,5)
V12: Removing PWL point (0.00187201,0)
V12: Removing PWL point (0.00192881,5)
V12: Removing PWL point (0.00197201,0)
V12: Removing PWL point (0.00202188,5)
V12: Removing PWL point (0.00207895,0)
V12: Removing PWL point (0.00212188,5)
V12: Removing PWL point (0.00217895,0)
V12: Removing PWL point (0.00222188,5)
V12: Removing PWL point (0.00227895,0)
V12: Removing PWL point (0.00232188,5)
V12: Removing PWL point (0.00237895,0)
V12: Removing PWL point (0.00242188,5)
V12: Removing PWL point (0.00247895,0)
V12: Removing PWL point (0.00252188,5)
V12: Removing PWL point (0.00257895,0)
V12: Removing PWL point (0.00262188,5)
V12: Removing PWL point (0.00268562,0)
V12: Removing PWL point (0.00271522,5)
V12: Removing PWL point (0.00278562,0)
V12: Removing PWL point (0.00281522,5)
V12: Removing PWL point (0.00288562,0)
V12: Removing PWL point (0.00291522,5)
V12: Removing PWL point (0.00298562,0)
V12: Removing PWL point (0.00301522,5)
V12: Removing PWL point (0.00308562,0)
V12: Removing PWL point (0.00311522,5)
V12: Removing PWL point (0.00318562,0)
V12: Removing PWL point (0.00321522,5)
V12: Removing PWL point (0.00328562,0)
V12: Removing PWL point (0.00331522,5)
V12: Removing PWL point (0.00339202,0)
V12: Removing PWL point (0.00340882,5)
V12: Removing PWL point (0.00349202,0)
V12: Removing PWL point (0.00350882,5)
V12: Removing PWL point (0.00359202,0)
V12: Removing PWL point (0.00360882,5)
V12: Removing PWL point (0.00369202,0)
V12: Removing PWL point (0.00370882,5)
V12: Removing PWL point (0.00379203,0)
V12: Removing PWL point (0.00380883,5)
V12: Removing PWL point (0.00389203,0)
V12: Removing PWL point (0.00390883,5)
V12: Removing PWL point (0.00399203,0)
V12: Removing PWL point (0.00400723,5)
V12: Removing PWL point (0.00409363,0)
V12: Removing PWL point (0.00410723,5)
V12: Removing PWL point (0.00419363,0)
V12: Removing PWL point (0.00420723,5)
V12: Removing PWL point (0.00429363,0)
V12: Removing PWL point (0.00430723,5)
V12: Removing PWL point (0.00439363,0)
V12: Removing PWL point (0.00440723,5)
V12: Removing PWL point (0.00449363,0)
V12: Removing PWL point (0.00450723,5)
V12: Removing PWL point (0.00459363,0)
V12: Removing PWL point (0.00460723,5)
V12: Removing PWL point (0.00469443,0)
V12: Removing PWL point (0.00470643,5)
V12: Removing PWL point (0.00479443,0)
V12: Removing PWL point (0.00480643,5)
V12: Removing PWL point (0.00489443,0)
V12: Removing PWL point (0.00490643,5)
V12: Removing PWL point (0.00499443,0)
V12: Removing PWL point (0.00500643,5)
V12: Removing PWL point (0.00509443,0)
V12: Removing PWL point (0.00510643,5)
V12: Removing PWL point (0.00519443,0)
V12: Removing PWL point (0.00520643,5)
V12: Removing PWL point (0.00529444,0)
V12: Removing PWL point (0.00530644,5)
V12: Removing PWL point (0.00539444,0)
V12: Removing PWL point (0.00540644,5)
V12: Removing PWL point (0.00549444,0)
V12: Removing PWL point (0.00550644,5)
V12: Removing PWL point (0.00559444,0)
V12: Removing PWL point (0.00560644,5)
V12: Removing PWL point (0.00569444,0)
V12: Removing PWL point (0.00570644,5)
V12: Removing PWL point (0.00579444,0)
V12: Removing PWL point (0.00580644,5)
V12: Removing PWL point (0.00589444,0)
V12: Removing PWL point (0.00590644,5)
V12: Removing PWL point (0.00599444,0)
V12: Removing PWL point (0.00600724,5)
V12: Removing PWL point (0.00609364,0)
V12: Removing PWL point (0.00610724,5)
V12: Removing PWL point (0.00619364,0)
V12: Removing PWL point (0.00620724,5)
V12: Removing PWL point (0.00629364,0)
V12: Removing PWL point (0.00630724,5)
V12: Removing PWL point (0.00639364,0)
V12: Removing PWL point (0.00640724,5)
V12: Removing PWL point (0.00649364,0)
V12: Removing PWL point (0.00650724,5)
V12: Removing PWL point (0.00659364,0)
V12: Removing PWL point (0.00660724,5)
V12: Removing PWL point (0.00669178,0)
V12: Removing PWL point (0.00670884,5)
V12: Removing PWL point (0.00679178,0)
V12: Removing PWL point (0.00680885,5)
V12: Removing PWL point (0.00689178,0)
V12: Removing PWL point (0.00690885,5)
V12: Removing PWL point (0.00699178,0)
V12: Removing PWL point (0.00700885,5)
V12: Removing PWL point (0.00709178,0)
V12: Removing PWL point (0.00710885,5)
V12: Removing PWL point (0.00719178,0)
V12: Removing PWL point (0.00720885,5)
V12: Removing PWL point (0.00729178,0)
V12: Removing PWL point (0.00730885,5)
V12: Removing PWL point (0.00739365,0)
V12: Removing PWL point (0.00740725,5)
V12: Removing PWL point (0.00749365,0)
V12: Removing PWL point (0.00750725,5)
V12: Removing PWL point (0.00759365,0)
V12: Removing PWL point (0.00760725,5)
V12: Removing PWL point (0.00769365,0)
V12: Removing PWL point (0.00770725,5)
V12: Removing PWL point (0.00779365,0)
V12: Removing PWL point (0.00780725,5)
V12: Removing PWL point (0.00789365,0)
V12: Removing PWL point (0.00790725,5)
V12: Removing PWL point (0.00799365,0)
V12: Removing PWL point (0.00800645,5)
V12: Removing PWL point (0.00809445,0)
V12: Removing PWL point (0.00810645,5)
V12: Removing PWL point (0.00819445,0)
V12: Removing PWL point (0.00820645,5)
V12: Removing PWL point (0.00829446,0)
V12: Removing PWL point (0.00830646,5)
V12: Removing PWL point (0.00839446,0)
V12: Removing PWL point (0.00840646,5)
V12: Removing PWL point (0.00849446,0)
V12: Removing PWL point (0.00850646,5)
V12: Removing PWL point (0.00859446,0)
V12: Removing PWL point (0.00860646,5)
V12: Removing PWL point (0.00869446,0)
V12: Removing PWL point (0.00870646,5)
V12: Removing PWL point (0.00879446,0)
V12: Removing PWL point (0.00880646,5)
V12: Removing PWL point (0.00889446,0)
V12: Removing PWL point (0.00890646,5)
V12: Removing PWL point (0.00899446,0)
V12: Removing PWL point (0.00900646,5)
V12: Removing PWL point (0.00909446,0)
V12: Removing PWL point (0.00910646,5)
V12: Removing PWL point (0.00919446,0)
V12: Removing PWL point (0.00920646,5)
V12: Removing PWL point (0.00929446,0)
V12: Removing PWL point (0.00930646,5)
V12: Removing PWL point (0.0093934,0)
V12: Removing PWL point (0.00940726,5)
V12: Removing PWL point (0.0094934,0)
V12: Removing PWL point (0.00950726,5)
V12: Removing PWL point (0.0095934,0)
V12: Removing PWL point (0.00960726,5)
V12: Removing PWL point (0.0096934,0)
V12: Removing PWL point (0.00970726,5)
V12: Removing PWL point (0.0097934,0)
V12: Removing PWL point (0.00980727,5)
V12: Removing PWL point (0.0098934,0)
V12: Removing PWL point (0.00990727,5)
V12: Removing PWL point (0.0099934,0)
V12: Removing PWL point (0.0100089,5)
V12: Removing PWL point (0.0100918,0)
V12: Removing PWL point (0.0101089,5)
V12: Removing PWL point (0.0101918,0)
V12: Removing PWL point (0.0102089,5)
V12: Removing PWL point (0.0102918,0)
V12: Removing PWL point (0.0103089,5)
V12: Removing PWL point (0.0103918,0)
V12: Removing PWL point (0.0104089,5)
V12: Removing PWL point (0.0104918,0)
V12: Removing PWL point (0.0105089,5)
V12: Removing PWL point (0.0105918,0)
V12: Removing PWL point (0.0106089,5)
V12: Removing PWL point (0.0106857,0)
V12: Removing PWL point (0.0107153,5)
V12: Removing PWL point (0.0107857,0)
V12: Removing PWL point (0.0108153,5)
V12: Removing PWL point (0.0108857,0)
V12: Removing PWL point (0.0109153,5)
V12: Removing PWL point (0.0109857,0)
V12: Removing PWL point (0.0110153,5)
V12: Removing PWL point (0.0110857,0)
V12: Removing PWL point (0.0111153,5)
V12: Removing PWL point (0.0111857,0)
V12: Removing PWL point (0.0112153,5)
V12: Removing PWL point (0.0112857,0)
V12: Removing PWL point (0.0113153,5)
V12: Removing PWL point (0.0113787,0)
V12: Removing PWL point (0.0114219,5)
V12: Removing PWL point (0.0114787,0)
V12: Removing PWL point (0.0115219,5)
V12: Removing PWL point (0.0115787,0)
V12: Removing PWL point (0.0116219,5)
V12: Removing PWL point (0.0116787,0)
V12: Removing PWL point (0.0117219,5)
V12: Removing PWL point (0.0117787,0)
V12: Removing PWL point (0.0118219,5)
V12: Removing PWL point (0.0118787,0)
V12: Removing PWL point (0.0119219,5)
V12: Removing PWL point (0.0119787,0)
V12: Removing PWL point (0.0120289,5)
V12: Removing PWL point (0.0120718,0)
V12: Removing PWL point (0.0121289,5)
V12: Removing PWL point (0.0121718,0)
V12: Removing PWL point (0.0122289,5)
V12: Removing PWL point (0.0122718,0)
V12: Removing PWL point (0.0123289,5)
V12: Removing PWL point (0.0123718,0)
V12: Removing PWL point (0.0124289,5)
V12: Removing PWL point (0.0124718,0)
V12: Removing PWL point (0.0125289,5)
V12: Removing PWL point (0.0125718,0)
V12: Removing PWL point (0.0126289,5)
V12: Removing PWL point (0.0126718,0)
V12: Removing PWL point (0.0127356,5)
V12: Removing PWL point (0.0127652,0)
V12: Removing PWL point (0.0128356,5)
V12: Removing PWL point (0.0128652,0)
V12: Removing PWL point (0.0129356,5)
V12: Removing PWL point (0.0129652,0)
V12: Removing PWL point (0.0130356,5)
V12: Removing PWL point (0.0130652,0)
V12: Removing PWL point (0.0131356,5)
V12: Removing PWL point (0.0131652,0)
V12: Removing PWL point (0.0132356,5)
V12: Removing PWL point (0.0132652,0)
V12: Removing PWL point (0.0133356,5)
V12: Removing PWL point (0.0133404,0)
V12: Removing PWL point (0.013342,5)
V12: Removing PWL point (0.0133588,0)
V12: Removing PWL point (0.013442,5)
V12: Removing PWL point (0.0134588,0)
V12: Removing PWL point (0.013542,5)
V12: Removing PWL point (0.0135588,0)
V12: Removing PWL point (0.013642,5)
V12: Removing PWL point (0.0136588,0)
V12: Removing PWL point (0.013742,5)
V12: Removing PWL point (0.0137588,0)
V12: Removing PWL point (0.013842,5)
V12: Removing PWL point (0.0138588,0)
V12: Removing PWL point (0.013942,5)
V12: Removing PWL point (0.0139588,0)
V12: Removing PWL point (0.0140436,5)
V12: Removing PWL point (0.0140572,0)
V12: Removing PWL point (0.0141436,5)
V12: Removing PWL point (0.0141572,0)
V12: Removing PWL point (0.0142436,5)
V12: Removing PWL point (0.0142572,0)
V12: Removing PWL point (0.0143436,5)
V12: Removing PWL point (0.0143572,0)
V12: Removing PWL point (0.0144436,5)
V12: Removing PWL point (0.0144572,0)
V12: Removing PWL point (0.0145436,5)
V12: Removing PWL point (0.0145572,0)
V12: Removing PWL point (0.0146436,5)
V12: Removing PWL point (0.0146572,0)
V12: Removing PWL point (0.0147444,5)
V12: Removing PWL point (0.0147564,0)
V12: Removing PWL point (0.0148444,5)
V12: Removing PWL point (0.0148564,0)
V12: Removing PWL point (0.0149444,5)
V12: Removing PWL point (0.0149564,0)
V12: Removing PWL point (0.0150444,5)
V12: Removing PWL point (0.0150564,0)
V12: Removing PWL point (0.0151444,5)
V12: Removing PWL point (0.0151564,0)
V12: Removing PWL point (0.0152444,5)
V12: Removing PWL point (0.0152564,0)
V12: Removing PWL point (0.0153444,5)
V12: Removing PWL point (0.0153564,0)
V12: Removing PWL point (0.0154444,5)
V12: Removing PWL point (0.0154564,0)
V12: Removing PWL point (0.0155444,5)
V12: Removing PWL point (0.0155564,0)
V12: Removing PWL point (0.0156444,5)
V12: Removing PWL point (0.0156564,0)
V12: Removing PWL point (0.0157444,5)
V12: Removing PWL point (0.0157564,0)
V12: Removing PWL point (0.0158444,5)
V12: Removing PWL point (0.0158564,0)
V12: Removing PWL point (0.0159444,5)
V12: Removing PWL point (0.0159564,0)
V12: Removing PWL point (0.0160436,5)
V12: Removing PWL point (0.0160572,0)
V12: Removing PWL point (0.0161436,5)
V12: Removing PWL point (0.0161572,0)
V12: Removing PWL point (0.0162436,5)
V12: Removing PWL point (0.0162572,0)
V12: Removing PWL point (0.0163436,5)
V12: Removing PWL point (0.0163572,0)
V12: Removing PWL point (0.0164436,5)
V12: Removing PWL point (0.0164572,0)
V12: Removing PWL point (0.0165436,5)
V12: Removing PWL point (0.0165572,0)
V12: Removing PWL point (0.0166436,5)
V12: Removing PWL point (0.0166572,0)
V12: Removing PWL point (0.016742,5)
V12: Removing PWL point (0.0167588,0)
V12: Removing PWL point (0.016842,5)
V12: Removing PWL point (0.0168588,0)
V12: Removing PWL point (0.016942,5)
V12: Removing PWL point (0.0169588,0)
V12: Removing PWL point (0.017042,5)
V12: Removing PWL point (0.0170588,0)
V12: Removing PWL point (0.017142,5)
V12: Removing PWL point (0.0171588,0)
V12: Removing PWL point (0.017242,5)
V12: Removing PWL point (0.0172588,0)
V12: Removing PWL point (0.0173425,0)
V12: Removing PWL point (0.0173436,5)
V12: Removing PWL point (0.0173572,0)
V12: Removing PWL point (0.0174436,5)
V12: Removing PWL point (0.0174572,0)
V12: Removing PWL point (0.0175436,5)
V12: Removing PWL point (0.0175572,0)
V12: Removing PWL point (0.0176436,5)
V12: Removing PWL point (0.0176572,0)
V12: Removing PWL point (0.0177436,5)
V12: Removing PWL point (0.0177572,0)
V12: Removing PWL point (0.0178436,5)
V12: Removing PWL point (0.0178572,0)
V12: Removing PWL point (0.0179436,5)
V12: Removing PWL point (0.0179572,0)
V12: Removing PWL point (0.0180444,5)
V12: Removing PWL point (0.0180564,0)
V12: Removing PWL point (0.0181444,5)
V12: Removing PWL point (0.0181564,0)
V12: Removing PWL point (0.0182444,5)
V12: Removing PWL point (0.0182564,0)
V12: Removing PWL point (0.0183444,5)
V12: Removing PWL point (0.0183564,0)
V12: Removing PWL point (0.0184444,5)
V12: Removing PWL point (0.0184564,0)
V12: Removing PWL point (0.0185444,5)
V12: Removing PWL point (0.0185564,0)
V12: Removing PWL point (0.0186444,5)
V12: Removing PWL point (0.0186564,0)
V12: Removing PWL point (0.0187444,5)
V12: Removing PWL point (0.0187564,0)
V12: Removing PWL point (0.0188444,5)
V12: Removing PWL point (0.0188564,0)
V12: Removing PWL point (0.0189444,5)
V12: Removing PWL point (0.0189564,0)
V12: Removing PWL point (0.0190444,5)
V12: Removing PWL point (0.0190564,0)
V12: Removing PWL point (0.0191444,5)
V12: Removing PWL point (0.0191564,0)
V12: Removing PWL point (0.0192444,5)
V12: Removing PWL point (0.0192564,0)
V12: Removing PWL point (0.0193436,5)
V12: Removing PWL point (0.0193572,0)
V12: Removing PWL point (0.0194436,5)
V12: Removing PWL point (0.0194572,0)
V12: Removing PWL point (0.0195436,5)
V12: Removing PWL point (0.0195572,0)
V12: Removing PWL point (0.0196436,5)
V12: Removing PWL point (0.0196572,0)
V12: Removing PWL point (0.0197436,5)
V12: Removing PWL point (0.0197572,0)
V12: Removing PWL point (0.0198436,5)
V12: Removing PWL point (0.0198572,0)
V12: Removing PWL point (0.0199436,5)
V12: Removing PWL point (0.0199572,0)
V12: Removing PWL point (0.0200417,5)
V12: Removing PWL point (0.0200591,0)
V12: Removing PWL point (0.0201417,5)
V12: Removing PWL point (0.0201591,0)
V12: Removing PWL point (0.0202417,5)
V12: Removing PWL point (0.0202591,0)
V12: Removing PWL point (0.0203417,5)
V12: Removing PWL point (0.0203591,0)
V12: Removing PWL point (0.0204417,5)
V12: Removing PWL point (0.0204591,0)
V12: Removing PWL point (0.0205417,5)
V12: Removing PWL point (0.0205591,0)
V12: Removing PWL point (0.0206417,5)
V12: Removing PWL point (0.0206591,0)
V12: Removing PWL point (0.0207356,5)
V12: Removing PWL point (0.0207652,0)
V12: Removing PWL point (0.0208356,5)
V12: Removing PWL point (0.0208652,0)
V12: Removing PWL point (0.0209356,5)
V12: Removing PWL point (0.0209652,0)
V12: Removing PWL point (0.0210356,5)
V12: Removing PWL point (0.0210652,0)
V12: Removing PWL point (0.0211356,5)
V12: Removing PWL point (0.0211652,0)
V12: Removing PWL point (0.0212356,5)
V12: Removing PWL point (0.0212652,0)
V12: Removing PWL point (0.0213356,5)
V12: Removing PWL point (0.0213721,0)
V12: Removing PWL point (0.0214287,5)
V12: Removing PWL point (0.0214721,0)
V12: Removing PWL point (0.0215287,5)
V12: Removing PWL point (0.0215721,0)
V12: Removing PWL point (0.0216287,5)
V12: Removing PWL point (0.0216721,0)
V12: Removing PWL point (0.0217287,5)
V12: Removing PWL point (0.0217721,0)
V12: Removing PWL point (0.0218287,5)
V12: Removing PWL point (0.0218721,0)
V12: Removing PWL point (0.0219287,5)
V12: Removing PWL point (0.0219721,0)
V12: Removing PWL point (0.0220217,5)
V12: Removing PWL point (0.0220791,0)
V12: Removing PWL point (0.0221217,5)
V12: Removing PWL point (0.0221791,0)
V12: Removing PWL point (0.0222217,5)
V12: Removing PWL point (0.0222791,0)
V12: Removing PWL point (0.0223217,5)
V12: Removing PWL point (0.0223791,0)
V12: Removing PWL point (0.0224217,5)
V12: Removing PWL point (0.0224791,0)
V12: Removing PWL point (0.0225218,5)
V12: Removing PWL point (0.0225791,0)
V12: Removing PWL point (0.0226218,5)
V12: Removing PWL point (0.0226858,0)
V12: Removing PWL point (0.0227151,5)
V12: Removing PWL point (0.0227858,0)
V12: Removing PWL point (0.0228151,5)
V12: Removing PWL point (0.0228858,0)
V12: Removing PWL point (0.0229151,5)
V12: Removing PWL point (0.0229858,0)
V12: Removing PWL point (0.0230151,5)
V12: Removing PWL point (0.0230858,0)
V12: Removing PWL point (0.0231151,5)
V12: Removing PWL point (0.0231858,0)
V12: Removing PWL point (0.0232151,5)
V12: Removing PWL point (0.0232858,0)
V12: Removing PWL point (0.0233151,5)
V12: Removing PWL point (0.0233919,0)
V12: Removing PWL point (0.023409,5)
V12: Removing PWL point (0.0234919,0)
V12: Removing PWL point (0.023509,5)
V12: Removing PWL point (0.0235919,0)
V12: Removing PWL point (0.023609,5)
V12: Removing PWL point (0.0236919,0)
V12: Removing PWL point (0.023709,5)
V12: Removing PWL point (0.0237919,0)
V12: Removing PWL point (0.023809,5)
V12: Removing PWL point (0.0238919,0)
V12: Removing PWL point (0.023909,5)
V12: Removing PWL point (0.0239919,0)
V12: Removing PWL point (0.024009,5)
V12: Removing PWL point (0.0240935,0)
V12: Removing PWL point (0.0241074,5)
V12: Removing PWL point (0.0241935,0)
V12: Removing PWL point (0.0242074,5)
V12: Removing PWL point (0.0242935,0)
V12: Removing PWL point (0.0243074,5)
V12: Removing PWL point (0.0243935,0)
V12: Removing PWL point (0.0244074,5)
V12: Removing PWL point (0.0244935,0)
V12: Removing PWL point (0.0245074,5)
V12: Removing PWL point (0.0245935,0)
V12: Removing PWL point (0.0246074,5)
V12: Removing PWL point (0.0246943,0)
V12: Removing PWL point (0.0247066,5)
V12: Removing PWL point (0.0247943,0)
V12: Removing PWL point (0.0248066,5)
V12: Removing PWL point (0.0248943,0)
V12: Removing PWL point (0.0249066,5)
V12: Removing PWL point (0.0249943,0)
V12: Removing PWL point (0.0250066,5)
V12: Removing PWL point (0.0250943,0)
V12: Removing PWL point (0.0251066,5)
V12: Removing PWL point (0.0251943,0)
V12: Removing PWL point (0.0252066,5)
V12: Removing PWL point (0.0252943,0)
V12: Removing PWL point (0.0253066,5)
V12: Removing PWL point (0.0253943,0)
V12: Removing PWL point (0.0254066,5)
V12: Removing PWL point (0.0254943,0)
V12: Removing PWL point (0.0255066,5)
V12: Removing PWL point (0.0255943,0)
V12: Removing PWL point (0.0256066,5)
V12: Removing PWL point (0.0256943,0)
V12: Removing PWL point (0.0257066,5)
V12: Removing PWL point (0.0257943,0)
V12: Removing PWL point (0.0258066,5)
V12: Removing PWL point (0.0258943,0)
V12: Removing PWL point (0.0259066,5)
V12: Removing PWL point (0.0259943,0)
V12: Removing PWL point (0.0260066,5)
V12: Removing PWL point (0.0260935,0)
V12: Removing PWL point (0.0261074,5)
V12: Removing PWL point (0.0261935,0)
V12: Removing PWL point (0.0262074,5)
V12: Removing PWL point (0.0262935,0)
V12: Removing PWL point (0.0263074,5)
V12: Removing PWL point (0.0263935,0)
V12: Removing PWL point (0.0264074,5)
V12: Removing PWL point (0.0264935,0)
V12: Removing PWL point (0.0265074,5)
V12: Removing PWL point (0.0265935,0)
V12: Removing PWL point (0.0266074,5)
V12: Removing PWL point (0.0266919,0)
V12: Removing PWL point (0.026709,5)
V12: Removing PWL point (0.0267919,0)
V12: Removing PWL point (0.026809,5)
V12: Removing PWL point (0.0268919,0)
V12: Removing PWL point (0.026909,5)
V12: Removing PWL point (0.0269919,0)
V12: Removing PWL point (0.027009,5)
V12: Removing PWL point (0.0270919,0)
V12: Removing PWL point (0.027109,5)
V12: Removing PWL point (0.0271919,0)
V12: Removing PWL point (0.027209,5)
V12: Removing PWL point (0.0272919,0)
V12: Removing PWL point (0.027309,5)
V12: Removing PWL point (0.0273935,0)
V12: Removing PWL point (0.0274074,5)
V12: Removing PWL point (0.0274935,0)
V12: Removing PWL point (0.0275074,5)
V12: Removing PWL point (0.0275935,0)
V12: Removing PWL point (0.0276074,5)
V12: Removing PWL point (0.0276935,0)
V12: Removing PWL point (0.0277074,5)
V12: Removing PWL point (0.0277935,0)
V12: Removing PWL point (0.0278074,5)
V12: Removing PWL point (0.0278935,0)
V12: Removing PWL point (0.0279074,5)
V12: Removing PWL point (0.0279935,0)
V12: Removing PWL point (0.0280074,5)
V12: Removing PWL point (0.0280943,0)
V12: Removing PWL point (0.0281063,5)
V12: Removing PWL point (0.0281943,0)
V12: Removing PWL point (0.0282063,5)
V12: Removing PWL point (0.0282943,0)
V12: Removing PWL point (0.0283063,5)
V12: Removing PWL point (0.0283943,0)
V12: Removing PWL point (0.0284063,5)
V12: Removing PWL point (0.0284943,0)
V12: Removing PWL point (0.0285063,5)
V12: Removing PWL point (0.0285943,0)
V12: Removing PWL point (0.0286063,5)
V12: Removing PWL point (0.0286943,0)
V12: Removing PWL point (0.0287066,5)
V12: Removing PWL point (0.0287943,0)
V12: Removing PWL point (0.0288066,5)
V12: Removing PWL point (0.0288943,0)
V12: Removing PWL point (0.0289066,5)
V12: Removing PWL point (0.0289943,0)
V12: Removing PWL point (0.0290066,5)
V12: Removing PWL point (0.0290943,0)
V12: Removing PWL point (0.0291066,5)
V12: Removing PWL point (0.0291943,0)
V12: Removing PWL point (0.0292063,5)
V12: Removing PWL point (0.0292943,0)
V12: Removing PWL point (0.0293063,5)
V12: Removing PWL point (0.0293935,0)
V12: Removing PWL point (0.0294074,5)
V12: Removing PWL point (0.0294935,0)
V12: Removing PWL point (0.0295074,5)
V12: Removing PWL point (0.0295935,0)
V12: Removing PWL point (0.0296074,5)
V12: Removing PWL point (0.0296935,0)
V12: Removing PWL point (0.0297074,5)
V12: Removing PWL point (0.0297935,0)
V12: Removing PWL point (0.0298074,5)
V12: Removing PWL point (0.0298935,0)
V12: Removing PWL point (0.0299074,5)
V12: Removing PWL point (0.0299935,0)
V12: Removing PWL point (0.0300074,5)
V12: Removing PWL point (0.0300917,0)
V12: Removing PWL point (0.030109,5)
V12: Removing PWL point (0.0301917,0)
V12: Removing PWL point (0.030209,5)
V12: Removing PWL point (0.0302917,0)
V12: Removing PWL point (0.030309,5)
V12: Removing PWL point (0.0303917,0)
V12: Removing PWL point (0.030409,5)
V12: Removing PWL point (0.0304917,0)
V12: Removing PWL point (0.030509,5)
V12: Removing PWL point (0.0305917,0)
V12: Removing PWL point (0.030609,5)
V12: Removing PWL point (0.0306855,0)
V12: Removing PWL point (0.0307154,5)
V12: Removing PWL point (0.0307855,0)
V12: Removing PWL point (0.0308154,5)
V12: Removing PWL point (0.0308855,0)
V12: Removing PWL point (0.0309154,5)
V12: Removing PWL point (0.0309855,0)
V12: Removing PWL point (0.0310154,5)
V12: Removing PWL point (0.0310855,0)
V12: Removing PWL point (0.0311154,5)
V12: Removing PWL point (0.0311855,0)
V12: Removing PWL point (0.0312154,5)
V12: Removing PWL point (0.0312855,0)
V12: Removing PWL point (0.0313154,5)
V12: Removing PWL point (0.0313786,0)
V12: Removing PWL point (0.0314221,5)
V12: Removing PWL point (0.0314786,0)
V12: Removing PWL point (0.0315221,5)
V12: Removing PWL point (0.0315786,0)
V12: Removing PWL point (0.0316221,5)
V12: Removing PWL point (0.0316786,0)
V12: Removing PWL point (0.0317221,5)
V12: Removing PWL point (0.0317786,0)
V12: Removing PWL point (0.0318221,5)
V12: Removing PWL point (0.0318786,0)
V12: Removing PWL point (0.0319221,5)
V12: Removing PWL point (0.0319786,0)
V12: Removing PWL point (0.032029,5)
V12: Removing PWL point (0.0320717,0)
V12: Removing PWL point (0.032129,5)
V12: Removing PWL point (0.0321717,0)
V12: Removing PWL point (0.032229,5)
V12: Removing PWL point (0.0322717,0)
V12: Removing PWL point (0.032329,5)
V12: Removing PWL point (0.0323717,0)
V12: Removing PWL point (0.032429,5)
V12: Removing PWL point (0.0324717,0)
V12: Removing PWL point (0.032529,5)
V12: Removing PWL point (0.0325717,0)
V12: Removing PWL point (0.032629,5)
V12: Removing PWL point (0.0326717,0)
V12: Removing PWL point (0.0327357,5)
V12: Removing PWL point (0.032765,0)
V12: Removing PWL point (0.0328357,5)
V12: Removing PWL point (0.032865,0)
V12: Removing PWL point (0.0329357,5)
V12: Removing PWL point (0.032965,0)
V12: Removing PWL point (0.0330357,5)
V12: Removing PWL point (0.033065,0)
V12: Removing PWL point (0.0331357,5)
V12: Removing PWL point (0.033165,0)
V12: Removing PWL point (0.0332357,5)
V12: Removing PWL point (0.033265,0)
V12: Removing PWL point (0.0333357,5)
V12: Removing PWL point (0.0333589,0)
V12: Removing PWL point (0.0334418,5)
V12: Removing PWL point (0.0334589,0)
V12: Removing PWL point (0.0335418,5)
V12: Removing PWL point (0.0335589,0)
V12: Removing PWL point (0.0336418,5)
V12: Removing PWL point (0.0336589,0)
V12: Removing PWL point (0.0337418,5)
V12: Removing PWL point (0.0337589,0)
V12: Removing PWL point (0.0338418,5)
V12: Removing PWL point (0.0338589,0)
V12: Removing PWL point (0.0339418,5)
V12: Removing PWL point (0.0339589,0)
V12: Removing PWL point (0.0340434,5)
V12: Removing PWL point (0.0340573,0)
V12: Removing PWL point (0.0341434,5)
V12: Removing PWL point (0.0341573,0)
V12: Removing PWL point (0.0342434,5)
V12: Removing PWL point (0.0342573,0)
V12: Removing PWL point (0.0343434,5)
V12: Removing PWL point (0.0343573,0)
V12: Removing PWL point (0.0344434,5)
V12: Removing PWL point (0.0344573,0)
V12: Removing PWL point (0.0345434,5)
V12: Removing PWL point (0.0345573,0)
V12: Removing PWL point (0.0346434,5)
V12: Removing PWL point (0.0346573,0)
V12: Removing PWL point (0.0347442,5)
V12: Removing PWL point (0.0347565,0)
V12: Removing PWL point (0.0348442,5)
V12: Removing PWL point (0.0348565,0)
V12: Removing PWL point (0.0349442,5)
V12: Removing PWL point (0.0349565,0)
V12: Removing PWL point (0.0350442,5)
V12: Removing PWL point (0.0350565,0)
V12: Removing PWL point (0.0351442,5)
V12: Removing PWL point (0.0351565,0)
V12: Removing PWL point (0.0352442,5)
V12: Removing PWL point (0.0352565,0)
V12: Removing PWL point (0.0353442,5)
V12: Removing PWL point (0.0353565,0)
V12: Removing PWL point (0.0354442,5)
V12: Removing PWL point (0.0354565,0)
V12: Removing PWL point (0.0355442,5)
V12: Removing PWL point (0.0355565,0)
V12: Removing PWL point (0.0356442,5)
V12: Removing PWL point (0.0356565,0)
V12: Removing PWL point (0.0357442,5)
V12: Removing PWL point (0.0357565,0)
V12: Removing PWL point (0.0358442,5)
V12: Removing PWL point (0.0358565,0)
V12: Removing PWL point (0.0359442,5)
V12: Removing PWL point (0.0359565,0)
V12: Removing PWL point (0.0360434,5)
V12: Removing PWL point (0.0360573,0)
V12: Removing PWL point (0.0361434,5)
V12: Removing PWL point (0.0361573,0)
V12: Removing PWL point (0.0362434,5)
V12: Removing PWL point (0.0362573,0)
V12: Removing PWL point (0.0363434,5)
V12: Removing PWL point (0.0363573,0)
V12: Removing PWL point (0.0364434,5)
V12: Removing PWL point (0.0364573,0)
V12: Removing PWL point (0.0365434,5)
V12: Removing PWL point (0.0365573,0)
V12: Removing PWL point (0.0366434,5)
V12: Removing PWL point (0.0366573,0)
V12: Removing PWL point (0.0367418,5)
V12: Removing PWL point (0.0367589,0)
V12: Removing PWL point (0.0368418,5)
V12: Removing PWL point (0.0368589,0)
V12: Removing PWL point (0.0369418,5)
V12: Removing PWL point (0.0369589,0)
V12: Removing PWL point (0.0370418,5)
V12: Removing PWL point (0.0370589,0)
V12: Removing PWL point (0.0371418,5)
V12: Removing PWL point (0.0371589,0)
V12: Removing PWL point (0.0372418,5)
V12: Removing PWL point (0.0372589,0)
V12: Removing PWL point (0.0373418,5)
V12: Removing PWL point (0.0373573,0)
V12: Removing PWL point (0.0374434,5)
V12: Removing PWL point (0.0374573,0)
V12: Removing PWL point (0.0375435,5)
V12: Removing PWL point (0.0375573,0)
V12: Removing PWL point (0.0376435,5)
V12: Removing PWL point (0.0376573,0)
V12: Removing PWL point (0.0377435,5)
V12: Removing PWL point (0.0377573,0)
V12: Removing PWL point (0.0378435,5)
V12: Removing PWL point (0.0378573,0)
V12: Removing PWL point (0.0379435,5)
V12: Removing PWL point (0.0379573,0)
V12: Removing PWL point (0.0380443,5)
V12: Removing PWL point (0.0380565,0)
V12: Removing PWL point (0.0381443,5)
V12: Removing PWL point (0.0381565,0)
V12: Removing PWL point (0.0382443,5)
V12: Removing PWL point (0.0382565,0)
V12: Removing PWL point (0.0383443,5)
V12: Removing PWL point (0.0383565,0)
V12: Removing PWL point (0.0384443,5)
V12: Removing PWL point (0.0384565,0)
V12: Removing PWL point (0.0385443,5)
V12: Removing PWL point (0.0385565,0)
V12: Removing PWL point (0.0386443,5)
V12: Removing PWL point (0.0386565,0)
V12: Removing PWL point (0.0387443,5)
V12: Removing PWL point (0.0387565,0)
V12: Removing PWL point (0.0388443,5)
V12: Removing PWL point (0.0388565,0)
V12: Removing PWL point (0.0389443,5)
V12: Removing PWL point (0.0389565,0)
V12: Removing PWL point (0.0390443,5)
V12: Removing PWL point (0.0390565,0)
V12: Removing PWL point (0.0391443,5)
V12: Removing PWL point (0.0391565,0)
V12: Removing PWL point (0.0392443,5)
V12: Removing PWL point (0.0392565,0)
V12: Removing PWL point (0.0393443,5)
V12: Removing PWL point (0.0393573,0)
V12: Removing PWL point (0.0394435,5)
V12: Removing PWL point (0.0394573,0)
V12: Removing PWL point (0.0395435,5)
V12: Removing PWL point (0.0395573,0)
V12: Removing PWL point (0.0396435,5)
V12: Removing PWL point (0.0396573,0)
V12: Removing PWL point (0.0397435,5)
V12: Removing PWL point (0.0397573,0)
V12: Removing PWL point (0.0398435,5)
V12: Removing PWL point (0.0398573,0)
V12: Removing PWL point (0.0399435,5)
V12: Removing PWL point (0.0399573,0)
V11: Removing PWL point (2.66668e-007,0)
V11: Removing PWL point (7.20005e-006,5)
V11: Removing PWL point (9.36006e-005,0)
V11: Removing PWL point (0.000107201,5)
V11: Removing PWL point (0.000193601,0)
V11: Removing PWL point (0.000207201,5)
V11: Removing PWL point (0.000293602,0)
V11: Removing PWL point (0.000307202,5)
V11: Removing PWL point (0.000393603,0)
V11: Removing PWL point (0.000407203,5)
V11: Removing PWL point (0.000493603,0)
V11: Removing PWL point (0.000507203,5)
V11: Removing PWL point (0.000593604,0)
V11: Removing PWL point (0.000607204,5)
V11: Removing PWL point (0.000693605,0)
V11: Removing PWL point (0.000707205,5)
V11: Removing PWL point (0.000793605,0)
V11: Removing PWL point (0.000807205,5)
V11: Removing PWL point (0.000893606,0)
V11: Removing PWL point (0.000907206,5)
V11: Removing PWL point (0.000993607,0)
V11: Removing PWL point (0.00100721,5)
V11: Removing PWL point (0.00109361,0)
V11: Removing PWL point (0.00110721,5)
V11: Removing PWL point (0.00119361,0)
V11: Removing PWL point (0.00120721,5)
V11: Removing PWL point (0.00129361,0)
V11: Removing PWL point (0.00130721,5)
V11: Removing PWL point (0.00139441,0)
V11: Removing PWL point (0.00140641,5)
V11: Removing PWL point (0.00149441,0)
V11: Removing PWL point (0.00150641,5)
V11: Removing PWL point (0.00159441,0)
V11: Removing PWL point (0.00160641,5)
V11: Removing PWL point (0.00169441,0)
V11: Removing PWL point (0.00170641,5)
V11: Removing PWL point (0.00179441,0)
V11: Removing PWL point (0.00180641,5)
V11: Removing PWL point (0.00189441,0)
V11: Removing PWL point (0.00190641,5)
V11: Removing PWL point (0.00199441,0)
V11: Removing PWL point (0.00200641,5)
V11: Removing PWL point (0.00209441,0)
V11: Removing PWL point (0.00210641,5)
V11: Removing PWL point (0.00219441,0)
V11: Removing PWL point (0.00220641,5)
V11: Removing PWL point (0.00229442,0)
V11: Removing PWL point (0.00230642,5)
V11: Removing PWL point (0.00239442,0)
V11: Removing PWL point (0.00240642,5)
V11: Removing PWL point (0.00249442,0)
V11: Removing PWL point (0.00250642,5)
V11: Removing PWL point (0.00259442,0)
V11: Removing PWL point (0.00260642,5)
V11: Removing PWL point (0.00269362,0)
V11: Removing PWL point (0.00270722,5)
V11: Removing PWL point (0.00279362,0)
V11: Removing PWL point (0.00280722,5)
V11: Removing PWL point (0.00289362,0)
V11: Removing PWL point (0.00290722,5)
V11: Removing PWL point (0.00299362,0)
V11: Removing PWL point (0.00300722,5)
V11: Removing PWL point (0.00309362,0)
V11: Removing PWL point (0.00310722,5)
V11: Removing PWL point (0.00319362,0)
V11: Removing PWL point (0.00320722,5)
V11: Removing PWL point (0.00329362,0)
V11: Removing PWL point (0.00330722,5)
V11: Removing PWL point (0.00339176,0)
V11: Removing PWL point (0.00340882,5)
V11: Removing PWL point (0.00349176,0)
V11: Removing PWL point (0.00350882,5)
V11: Removing PWL point (0.00359176,0)
V11: Removing PWL point (0.00360882,5)
V11: Removing PWL point (0.00369176,0)
V11: Removing PWL point (0.00370882,5)
V11: Removing PWL point (0.00379176,0)
V11: Removing PWL point (0.00380883,5)
V11: Removing PWL point (0.00389176,0)
V11: Removing PWL point (0.00390883,5)
V11: Removing PWL point (0.00399176,0)
V11: Removing PWL point (0.00401523,5)
V11: Removing PWL point (0.00408563,0)
V11: Removing PWL point (0.00411523,5)
V11: Removing PWL point (0.00418563,0)
V11: Removing PWL point (0.00421523,5)
V11: Removing PWL point (0.00428563,0)
V11: Removing PWL point (0.00431523,5)
V11: Removing PWL point (0.00438563,0)
V11: Removing PWL point (0.00441523,5)
V11: Removing PWL point (0.00448563,0)
V11: Removing PWL point (0.00451523,5)
V11: Removing PWL point (0.00458563,0)
V11: Removing PWL point (0.00461523,5)
V11: Removing PWL point (0.0046787,0)
V11: Removing PWL point (0.0047219,5)
V11: Removing PWL point (0.0047787,0)
V11: Removing PWL point (0.0048219,5)
V11: Removing PWL point (0.0048787,0)
V11: Removing PWL point (0.0049219,5)
V11: Removing PWL point (0.0049787,0)
V11: Removing PWL point (0.0050219,5)
V11: Removing PWL point (0.0050787,0)
V11: Removing PWL point (0.0051219,5)
V11: Removing PWL point (0.0051787,0)
V11: Removing PWL point (0.0052219,5)
V11: Removing PWL point (0.0052787,0)
V11: Removing PWL point (0.0053219,5)
V11: Removing PWL point (0.00537204,0)
V11: Removing PWL point (0.00542884,5)
V11: Removing PWL point (0.00547204,0)
V11: Removing PWL point (0.00552884,5)
V11: Removing PWL point (0.00557204,0)
V11: Removing PWL point (0.00562884,5)
V11: Removing PWL point (0.00567204,0)
V11: Removing PWL point (0.00572884,5)
V11: Removing PWL point (0.00577204,0)
V11: Removing PWL point (0.00582884,5)
V11: Removing PWL point (0.00587204,0)
V11: Removing PWL point (0.00592884,5)
V11: Removing PWL point (0.00597204,0)
V11: Removing PWL point (0.00603551,5)
V11: Removing PWL point (0.00606511,0)
V11: Removing PWL point (0.00613551,5)
V11: Removing PWL point (0.00616511,0)
V11: Removing PWL point (0.00623551,5)
V11: Removing PWL point (0.00626511,0)
V11: Removing PWL point (0.00633551,5)
V11: Removing PWL point (0.00636511,0)
V11: Removing PWL point (0.00643551,5)
V11: Removing PWL point (0.00646511,0)
V11: Removing PWL point (0.00653551,5)
V11: Removing PWL point (0.00656511,0)
V11: Removing PWL point (0.00663551,5)
V11: Removing PWL point (0.00666511,0)
V11: Removing PWL point (0.00674191,5)
V11: Removing PWL point (0.00675898,0)
V11: Removing PWL point (0.00684191,5)
V11: Removing PWL point (0.00685898,0)
V11: Removing PWL point (0.00694191,5)
V11: Removing PWL point (0.00695898,0)
V11: Removing PWL point (0.00704191,5)
V11: Removing PWL point (0.00705898,0)
V11: Removing PWL point (0.00714191,5)
V11: Removing PWL point (0.00715898,0)
V11: Removing PWL point (0.00724191,5)
V11: Removing PWL point (0.00725898,0)
V11: Removing PWL point (0.00734352,5)
V11: Removing PWL point (0.00735738,0)
V11: Removing PWL point (0.00744352,5)
V11: Removing PWL point (0.00745738,0)
V11: Removing PWL point (0.00754352,5)
V11: Removing PWL point (0.00755738,0)
V11: Removing PWL point (0.00764352,5)
V11: Removing PWL point (0.00765738,0)
V11: Removing PWL point (0.00774352,5)
V11: Removing PWL point (0.00775739,0)
V11: Removing PWL point (0.00784352,5)
V11: Removing PWL point (0.00785739,0)
V11: Removing PWL point (0.00794352,5)
V11: Removing PWL point (0.00795739,0)
V11: Removing PWL point (0.00804432,5)
V11: Removing PWL point (0.00805632,0)
V11: Removing PWL point (0.00814432,5)
V11: Removing PWL point (0.00815632,0)
V11: Removing PWL point (0.00824432,5)
V11: Removing PWL point (0.00825632,0)
V11: Removing PWL point (0.00834432,5)
V11: Removing PWL point (0.00835632,0)
V11: Removing PWL point (0.00844432,5)
V11: Removing PWL point (0.00845632,0)
V11: Removing PWL point (0.00854432,5)
V11: Removing PWL point (0.00855632,0)
V11: Removing PWL point (0.00864432,5)
V11: Removing PWL point (0.00865632,0)
V11: Removing PWL point (0.00874432,5)
V11: Removing PWL point (0.00875633,0)
V11: Removing PWL point (0.00884433,5)
V11: Removing PWL point (0.00885633,0)
V11: Removing PWL point (0.00894433,5)
V11: Removing PWL point (0.00895633,0)
V11: Removing PWL point (0.00904433,5)
V11: Removing PWL point (0.00905633,0)
V11: Removing PWL point (0.00914433,5)
V11: Removing PWL point (0.00915633,0)
V11: Removing PWL point (0.00924433,5)
V11: Removing PWL point (0.00925633,0)
V11: Removing PWL point (0.00934353,5)
V11: Removing PWL point (0.0093574,0)
V11: Removing PWL point (0.00944353,5)
V11: Removing PWL point (0.0094574,0)
V11: Removing PWL point (0.00954353,5)
V11: Removing PWL point (0.0095574,0)
V11: Removing PWL point (0.00964353,5)
V11: Removing PWL point (0.0096574,0)
V11: Removing PWL point (0.00974353,5)
V11: Removing PWL point (0.0097574,0)
V11: Removing PWL point (0.00984353,5)
V11: Removing PWL point (0.0098574,0)
V11: Removing PWL point (0.00994353,5)
V11: Removing PWL point (0.0099574,0)
V11: Removing PWL point (0.0100419,5)
V11: Removing PWL point (0.010059,0)
V11: Removing PWL point (0.0101419,5)
V11: Removing PWL point (0.010159,0)
V11: Removing PWL point (0.0102419,5)
V11: Removing PWL point (0.010259,0)
V11: Removing PWL point (0.0103419,5)
V11: Removing PWL point (0.010359,0)
V11: Removing PWL point (0.0104419,5)
V11: Removing PWL point (0.010459,0)
V11: Removing PWL point (0.0105419,5)
V11: Removing PWL point (0.010559,0)
V11: Removing PWL point (0.0106419,5)
V11: Removing PWL point (0.010659,0)
V11: Removing PWL point (0.0107435,5)
V11: Removing PWL point (0.0107571,0)
V11: Removing PWL point (0.0108435,5)
V11: Removing PWL point (0.0108571,0)
V11: Removing PWL point (0.0109435,5)
V11: Removing PWL point (0.0109571,0)
V11: Removing PWL point (0.0110435,5)
V11: Removing PWL point (0.0110571,0)
V11: Removing PWL point (0.0111435,5)
V11: Removing PWL point (0.0111571,0)
V11: Removing PWL point (0.0112435,5)
V11: Removing PWL point (0.0112571,0)
V11: Removing PWL point (0.0113443,5)
V11: Removing PWL point (0.0113563,0)
V11: Removing PWL point (0.0114443,5)
V11: Removing PWL point (0.0114563,0)
V11: Removing PWL point (0.0115443,5)
V11: Removing PWL point (0.0115563,0)
V11: Removing PWL point (0.0116443,5)
V11: Removing PWL point (0.0116563,0)
V11: Removing PWL point (0.0117443,5)
V11: Removing PWL point (0.0117563,0)
V11: Removing PWL point (0.0118443,5)
V11: Removing PWL point (0.0118563,0)
V11: Removing PWL point (0.0119443,5)
V11: Removing PWL point (0.0119563,0)
V11: Removing PWL point (0.0120443,5)
V11: Removing PWL point (0.0120563,0)
V11: Removing PWL point (0.0121443,5)
V11: Removing PWL point (0.0121563,0)
V11: Removing PWL point (0.0122443,5)
V11: Removing PWL point (0.0122563,0)
V11: Removing PWL point (0.0123443,5)
V11: Removing PWL point (0.0123563,0)
V11: Removing PWL point (0.0124443,5)
V11: Removing PWL point (0.0124563,0)
V11: Removing PWL point (0.0125444,5)
V11: Removing PWL point (0.0125564,0)
V11: Removing PWL point (0.0126444,5)
V11: Removing PWL point (0.0126564,0)
V11: Removing PWL point (0.0127436,5)
V11: Removing PWL point (0.0127574,0)
V11: Removing PWL point (0.0128436,5)
V11: Removing PWL point (0.0128574,0)
V11: Removing PWL point (0.0129436,5)
V11: Removing PWL point (0.0129574,0)
V11: Removing PWL point (0.0130436,5)
V11: Removing PWL point (0.0130574,0)
V11: Removing PWL point (0.0131436,5)
V11: Removing PWL point (0.0131574,0)
V11: Removing PWL point (0.0132436,5)
V11: Removing PWL point (0.0132574,0)
V11: Removing PWL point (0.013342,5)
V11: Removing PWL point (0.013359,0)
V11: Removing PWL point (0.013442,5)
V11: Removing PWL point (0.013459,0)
V11: Removing PWL point (0.013542,5)
V11: Removing PWL point (0.013559,0)
V11: Removing PWL point (0.013642,5)
V11: Removing PWL point (0.013659,0)
V11: Removing PWL point (0.013742,5)
V11: Removing PWL point (0.013759,0)
V11: Removing PWL point (0.013842,5)
V11: Removing PWL point (0.013859,0)
V11: Removing PWL point (0.013942,5)
V11: Removing PWL point (0.013959,0)
V11: Removing PWL point (0.0140356,5)
V11: Removing PWL point (0.0140652,0)
V11: Removing PWL point (0.0141356,5)
V11: Removing PWL point (0.0141652,0)
V11: Removing PWL point (0.0142356,5)
V11: Removing PWL point (0.0142652,0)
V11: Removing PWL point (0.0143356,5)
V11: Removing PWL point (0.0143652,0)
V11: Removing PWL point (0.0144356,5)
V11: Removing PWL point (0.0144652,0)
V11: Removing PWL point (0.0145356,5)
V11: Removing PWL point (0.0145652,0)
V11: Removing PWL point (0.0146356,5)
V11: Removing PWL point (0.0146652,0)
V11: Removing PWL point (0.0147289,5)
V11: Removing PWL point (0.0147721,0)
V11: Removing PWL point (0.0148289,5)
V11: Removing PWL point (0.0148721,0)
V11: Removing PWL point (0.0149289,5)
V11: Removing PWL point (0.0149721,0)
V11: Removing PWL point (0.0150289,5)
V11: Removing PWL point (0.0150721,0)
V11: Removing PWL point (0.0151289,5)
V11: Removing PWL point (0.0151721,0)
V11: Removing PWL point (0.0152289,5)
V11: Removing PWL point (0.0152721,0)
V11: Removing PWL point (0.0153289,5)
V11: Removing PWL point (0.015379,0)
V11: Removing PWL point (0.015422,5)
V11: Removing PWL point (0.015479,0)
V11: Removing PWL point (0.015522,5)
V11: Removing PWL point (0.015579,0)
V11: Removing PWL point (0.015622,5)
V11: Removing PWL point (0.015679,0)
V11: Removing PWL point (0.015722,5)
V11: Removing PWL point (0.015779,0)
V11: Removing PWL point (0.015822,5)
V11: Removing PWL point (0.015879,0)
V11: Removing PWL point (0.015922,5)
V11: Removing PWL point (0.015979,0)
V11: Removing PWL point (0.016015,5)
V11: Removing PWL point (0.0160857,0)
V11: Removing PWL point (0.016115,5)
V11: Removing PWL point (0.0161857,0)
V11: Removing PWL point (0.016215,5)
V11: Removing PWL point (0.0162857,0)
V11: Removing PWL point (0.016315,5)
V11: Removing PWL point (0.0163857,0)
V11: Removing PWL point (0.016415,5)
V11: Removing PWL point (0.0164857,0)
V11: Removing PWL point (0.016515,5)
V11: Removing PWL point (0.0165857,0)
V11: Removing PWL point (0.016615,5)
V11: Removing PWL point (0.0166918,0)
V11: Removing PWL point (0.0167089,5)
V11: Removing PWL point (0.0167918,0)
V11: Removing PWL point (0.0168089,5)
V11: Removing PWL point (0.0168918,0)
V11: Removing PWL point (0.0169089,5)
V11: Removing PWL point (0.0169918,0)
V11: Removing PWL point (0.0170089,5)
V11: Removing PWL point (0.0170918,0)
V11: Removing PWL point (0.0171089,5)
V11: Removing PWL point (0.0171918,0)
V11: Removing PWL point (0.0172089,5)
V11: Removing PWL point (0.0172918,0)
V11: Removing PWL point (0.0173089,5)
V11: Removing PWL point (0.0173934,0)
V11: Removing PWL point (0.0174073,5)
V11: Removing PWL point (0.0174935,0)
V11: Removing PWL point (0.0175073,5)
V11: Removing PWL point (0.0175935,0)
V11: Removing PWL point (0.0176073,5)
V11: Removing PWL point (0.0176935,0)
V11: Removing PWL point (0.0177073,5)
V11: Removing PWL point (0.0177935,0)
V11: Removing PWL point (0.0178073,5)
V11: Removing PWL point (0.0178935,0)
V11: Removing PWL point (0.0179073,5)
V11: Removing PWL point (0.0179935,0)
V11: Removing PWL point (0.0180073,5)
V11: Removing PWL point (0.0180943,0)
V11: Removing PWL point (0.0181065,5)
V11: Removing PWL point (0.0181943,0)
V11: Removing PWL point (0.0182065,5)
V11: Removing PWL point (0.0182943,0)
V11: Removing PWL point (0.0183065,5)
V11: Removing PWL point (0.0183943,0)
V11: Removing PWL point (0.0184065,5)
V11: Removing PWL point (0.0184943,0)
V11: Removing PWL point (0.0185065,5)
V11: Removing PWL point (0.0185943,0)
V11: Removing PWL point (0.0186065,5)
V11: Removing PWL point (0.0186943,0)
V11: Removing PWL point (0.0187065,5)
V11: Removing PWL point (0.0187943,0)
V11: Removing PWL point (0.0188065,5)
V11: Removing PWL point (0.0188943,0)
V11: Removing PWL point (0.0189065,5)
V11: Removing PWL point (0.0189943,0)
V11: Removing PWL point (0.0190065,5)
V11: Removing PWL point (0.0190943,0)
V11: Removing PWL point (0.0191065,5)
V11: Removing PWL point (0.0191943,0)
V11: Removing PWL point (0.0192065,5)
V11: Removing PWL point (0.0192943,0)
V11: Removing PWL point (0.0193065,5)
V11: Removing PWL point (0.0193935,0)
V11: Removing PWL point (0.0194073,5)
V11: Removing PWL point (0.0194935,0)
V11: Removing PWL point (0.0195073,5)
V11: Removing PWL point (0.0195935,0)
V11: Removing PWL point (0.0196073,5)
V11: Removing PWL point (0.0196935,0)
V11: Removing PWL point (0.0197073,5)
V11: Removing PWL point (0.0197935,0)
V11: Removing PWL point (0.0198073,5)
V11: Removing PWL point (0.0198935,0)
V11: Removing PWL point (0.0199073,5)
V11: Removing PWL point (0.0199935,0)
V11: Removing PWL point (0.0200073,5)
V11: Removing PWL point (0.0200919,0)
V11: Removing PWL point (0.0201089,5)
V11: Removing PWL point (0.0201919,0)
V11: Removing PWL point (0.0202089,5)
V11: Removing PWL point (0.0202919,0)
V11: Removing PWL point (0.0203089,5)
V11: Removing PWL point (0.0203919,0)
V11: Removing PWL point (0.0204089,5)
V11: Removing PWL point (0.0204919,0)
V11: Removing PWL point (0.0205089,5)
V11: Removing PWL point (0.0205919,0)
V11: Removing PWL point (0.0206089,5)
V11: Removing PWL point (0.0206935,0)
V11: Removing PWL point (0.0207073,5)
V11: Removing PWL point (0.0207935,0)
V11: Removing PWL point (0.0208073,5)
V11: Removing PWL point (0.0208935,0)
V11: Removing PWL point (0.0209073,5)
V11: Removing PWL point (0.0209935,0)
V11: Removing PWL point (0.0210073,5)
V11: Removing PWL point (0.0210935,0)
V11: Removing PWL point (0.0211073,5)
V11: Removing PWL point (0.0211935,0)
V11: Removing PWL point (0.0212073,5)
V11: Removing PWL point (0.0212935,0)
V11: Removing PWL point (0.0213073,5)
V11: Removing PWL point (0.0213943,0)
V11: Removing PWL point (0.0214065,5)
V11: Removing PWL point (0.0214943,0)
V11: Removing PWL point (0.0215065,5)
V11: Removing PWL point (0.0215943,0)
V11: Removing PWL point (0.0216065,5)
V11: Removing PWL point (0.0216943,0)
V11: Removing PWL point (0.0217065,5)
V11: Removing PWL point (0.0217943,0)
V11: Removing PWL point (0.0218065,5)
V11: Removing PWL point (0.0218943,0)
V11: Removing PWL point (0.0219065,5)
V11: Removing PWL point (0.0219943,0)
V11: Removing PWL point (0.0220065,5)
V11: Removing PWL point (0.0220943,0)
V11: Removing PWL point (0.0221065,5)
V11: Removing PWL point (0.0221943,0)
V11: Removing PWL point (0.0222065,5)
V11: Removing PWL point (0.0222943,0)
V11: Removing PWL point (0.0223065,5)
V11: Removing PWL point (0.0223943,0)
V11: Removing PWL point (0.0224065,5)
V11: Removing PWL point (0.0224943,0)
V11: Removing PWL point (0.0225066,5)
V11: Removing PWL point (0.0225943,0)
V11: Removing PWL point (0.0226066,5)
V11: Removing PWL point (0.0226935,0)
V11: Removing PWL point (0.0227074,5)
V11: Removing PWL point (0.0227935,0)
V11: Removing PWL point (0.0228074,5)
V11: Removing PWL point (0.0228935,0)
V11: Removing PWL point (0.0229074,5)
V11: Removing PWL point (0.0229935,0)
V11: Removing PWL point (0.0230074,5)
V11: Removing PWL point (0.0230935,0)
V11: Removing PWL point (0.0231074,5)
V11: Removing PWL point (0.0231935,0)
V11: Removing PWL point (0.0232074,5)
V11: Removing PWL point (0.0232935,0)
V11: Removing PWL point (0.0233074,5)
V11: Removing PWL point (0.0233919,0)
V11: Removing PWL point (0.023409,5)
V11: Removing PWL point (0.0234919,0)
V11: Removing PWL point (0.023509,5)
V11: Removing PWL point (0.0235919,0)
V11: Removing PWL point (0.023609,5)
V11: Removing PWL point (0.0236919,0)
V11: Removing PWL point (0.023709,5)
V11: Removing PWL point (0.0237919,0)
V11: Removing PWL point (0.023809,5)
V11: Removing PWL point (0.0238919,0)
V11: Removing PWL point (0.023909,5)
V11: Removing PWL point (0.0239919,0)
V11: Removing PWL point (0.024009,5)
V11: Removing PWL point (0.0240124,0)
V11: Removing PWL point (0.0240154,5)
V11: Removing PWL point (0.0240855,0)
V11: Removing PWL point (0.0241154,5)
V11: Removing PWL point (0.0241855,0)
V11: Removing PWL point (0.0242154,5)
V11: Removing PWL point (0.0242855,0)
V11: Removing PWL point (0.0243154,5)
V11: Removing PWL point (0.0243855,0)
V11: Removing PWL point (0.0244154,5)
V11: Removing PWL point (0.0244855,0)
V11: Removing PWL point (0.0245154,5)
V11: Removing PWL point (0.0245855,0)
V11: Removing PWL point (0.0246154,5)
V11: Removing PWL point (0.0246794,0)
V11: Removing PWL point (0.024722,5)
V11: Removing PWL point (0.0247788,0)
V11: Removing PWL point (0.024822,5)
V11: Removing PWL point (0.0248788,0)
V11: Removing PWL point (0.024922,5)
V11: Removing PWL point (0.0249788,0)
V11: Removing PWL point (0.025022,5)
V11: Removing PWL point (0.0250788,0)
V11: Removing PWL point (0.025122,5)
V11: Removing PWL point (0.0251788,0)
V11: Removing PWL point (0.025222,5)
V11: Removing PWL point (0.0252788,0)
V11: Removing PWL point (0.025322,5)
V11: Removing PWL point (0.0253719,0)
V11: Removing PWL point (0.025429,5)
V11: Removing PWL point (0.0254719,0)
V11: Removing PWL point (0.025529,5)
V11: Removing PWL point (0.0255719,0)
V11: Removing PWL point (0.025629,5)
V11: Removing PWL point (0.0256719,0)
V11: Removing PWL point (0.025729,5)
V11: Removing PWL point (0.0257719,0)
V11: Removing PWL point (0.025829,5)
V11: Removing PWL point (0.0258719,0)
V11: Removing PWL point (0.025929,5)
V11: Removing PWL point (0.0259719,0)
V11: Removing PWL point (0.0260356,5)
V11: Removing PWL point (0.026065,0)
V11: Removing PWL point (0.0261356,5)
V11: Removing PWL point (0.026165,0)
V11: Removing PWL point (0.0262356,5)
V11: Removing PWL point (0.026265,0)
V11: Removing PWL point (0.0263356,5)
V11: Removing PWL point (0.026365,0)
V11: Removing PWL point (0.0264356,5)
V11: Removing PWL point (0.026465,0)
V11: Removing PWL point (0.0265356,5)
V11: Removing PWL point (0.026565,0)
V11: Removing PWL point (0.0266356,5)
V11: Removing PWL point (0.026665,0)
V11: Removing PWL point (0.026742,5)
V11: Removing PWL point (0.0267588,0)
V11: Removing PWL point (0.026842,5)
V11: Removing PWL point (0.0268588,0)
V11: Removing PWL point (0.026942,5)
V11: Removing PWL point (0.0269588,0)
V11: Removing PWL point (0.027042,5)
V11: Removing PWL point (0.0270588,0)
V11: Removing PWL point (0.027142,5)
V11: Removing PWL point (0.0271588,0)
V11: Removing PWL point (0.027242,5)
V11: Removing PWL point (0.0272588,0)
V11: Removing PWL point (0.027342,5)
V11: Removing PWL point (0.0273572,0)
V11: Removing PWL point (0.0274436,5)
V11: Removing PWL point (0.0274572,0)
V11: Removing PWL point (0.0275437,5)
V11: Removing PWL point (0.0275573,0)
V11: Removing PWL point (0.0276437,5)
V11: Removing PWL point (0.0276573,0)
V11: Removing PWL point (0.0277437,5)
V11: Removing PWL point (0.0277573,0)
V11: Removing PWL point (0.0278437,5)
V11: Removing PWL point (0.0278573,0)
V11: Removing PWL point (0.0279437,5)
V11: Removing PWL point (0.0279573,0)
V11: Removing PWL point (0.0280445,5)
V11: Removing PWL point (0.0280565,0)
V11: Removing PWL point (0.0281445,5)
V11: Removing PWL point (0.0281565,0)
V11: Removing PWL point (0.0282445,5)
V11: Removing PWL point (0.0282565,0)
V11: Removing PWL point (0.0283445,5)
V11: Removing PWL point (0.0283565,0)
V11: Removing PWL point (0.0284445,5)
V11: Removing PWL point (0.0284565,0)
V11: Removing PWL point (0.0285445,5)
V11: Removing PWL point (0.0285565,0)
V11: Removing PWL point (0.0286445,5)
V11: Removing PWL point (0.0286565,0)
V11: Removing PWL point (0.0287445,5)
V11: Removing PWL point (0.0287565,0)
V11: Removing PWL point (0.0288445,5)
V11: Removing PWL point (0.0288565,0)
V11: Removing PWL point (0.0289445,5)
V11: Removing PWL point (0.0289565,0)
V11: Removing PWL point (0.0290445,5)
V11: Removing PWL point (0.0290565,0)
V11: Removing PWL point (0.0291445,5)
V11: Removing PWL point (0.0291565,0)
V11: Removing PWL point (0.0292445,5)
V11: Removing PWL point (0.0292565,0)
V11: Removing PWL point (0.0293445,5)
V11: Removing PWL point (0.0293573,0)
V11: Removing PWL point (0.0294434,5)
V11: Removing PWL point (0.0294573,0)
V11: Removing PWL point (0.0295434,5)
V11: Removing PWL point (0.0295573,0)
V11: Removing PWL point (0.0296434,5)
V11: Removing PWL point (0.0296573,0)
V11: Removing PWL point (0.0297434,5)
V11: Removing PWL point (0.0297573,0)
V11: Removing PWL point (0.0298434,5)
V11: Removing PWL point (0.0298573,0)
V11: Removing PWL point (0.0299434,5)
V11: Removing PWL point (0.0299573,0)
V11: Removing PWL point (0.0300421,5)
V11: Removing PWL point (0.0300589,0)
V11: Removing PWL point (0.0301421,5)
V11: Removing PWL point (0.0301589,0)
V11: Removing PWL point (0.0302421,5)
V11: Removing PWL point (0.0302589,0)
V11: Removing PWL point (0.0303421,5)
V11: Removing PWL point (0.0303589,0)
V11: Removing PWL point (0.0304421,5)
V11: Removing PWL point (0.0304589,0)
V11: Removing PWL point (0.0305421,5)
V11: Removing PWL point (0.0305589,0)
V11: Removing PWL point (0.0306421,5)
V11: Removing PWL point (0.0306589,0)
V11: Removing PWL point (0.0307437,5)
V11: Removing PWL point (0.0307573,0)
V11: Removing PWL point (0.0308437,5)
V11: Removing PWL point (0.0308573,0)
V11: Removing PWL point (0.0309437,5)
V11: Removing PWL point (0.0309573,0)
V11: Removing PWL point (0.0310437,5)
V11: Removing PWL point (0.0310573,0)
V11: Removing PWL point (0.0311437,5)
V11: Removing PWL point (0.0311573,0)
V11: Removing PWL point (0.0312437,5)
V11: Removing PWL point (0.0312573,0)
V11: Removing PWL point (0.0313437,5)
V11: Removing PWL point (0.0313565,0)
V11: Removing PWL point (0.0314445,5)
V11: Removing PWL point (0.0314565,0)
V11: Removing PWL point (0.0315445,5)
V11: Removing PWL point (0.0315565,0)
V11: Removing PWL point (0.0316445,5)
V11: Removing PWL point (0.0316565,0)
V11: Removing PWL point (0.0317445,5)
V11: Removing PWL point (0.0317565,0)
V11: Removing PWL point (0.0318445,5)
V11: Removing PWL point (0.0318565,0)
V11: Removing PWL point (0.0319445,5)
V11: Removing PWL point (0.0319565,0)
V11: Removing PWL point (0.0320442,5)
V11: Removing PWL point (0.0320565,0)
V11: Removing PWL point (0.0321442,5)
V11: Removing PWL point (0.0321565,0)
V11: Removing PWL point (0.0322442,5)
V11: Removing PWL point (0.0322565,0)
V11: Removing PWL point (0.0323442,5)
V11: Removing PWL point (0.0323565,0)
V11: Removing PWL point (0.0324442,5)
V11: Removing PWL point (0.0324565,0)
V11: Removing PWL point (0.0325442,5)
V11: Removing PWL point (0.0325565,0)
V11: Removing PWL point (0.0326442,5)
V11: Removing PWL point (0.0326565,0)
V11: Removing PWL point (0.0327434,5)
V11: Removing PWL point (0.0327573,0)
V11: Removing PWL point (0.0328434,5)
V11: Removing PWL point (0.0328573,0)
V11: Removing PWL point (0.0329434,5)
V11: Removing PWL point (0.0329573,0)
V11: Removing PWL point (0.0330434,5)
V11: Removing PWL point (0.0330573,0)
V11: Removing PWL point (0.0331434,5)
V11: Removing PWL point (0.0331573,0)
V11: Removing PWL point (0.0332434,5)
V11: Removing PWL point (0.0332573,0)
V11: Removing PWL point (0.0333434,5)
V11: Removing PWL point (0.0333592,0)
V11: Removing PWL point (0.0334418,5)
V11: Removing PWL point (0.0334592,0)
V11: Removing PWL point (0.0335418,5)
V11: Removing PWL point (0.0335592,0)
V11: Removing PWL point (0.0336418,5)
V11: Removing PWL point (0.0336592,0)
V11: Removing PWL point (0.0337418,5)
V11: Removing PWL point (0.0337592,0)
V11: Removing PWL point (0.0338418,5)
V11: Removing PWL point (0.0338592,0)
V11: Removing PWL point (0.0339418,5)
V11: Removing PWL point (0.0339592,0)
V11: Removing PWL point (0.0340354,5)
V11: Removing PWL point (0.0340653,0)
V11: Removing PWL point (0.0341354,5)
V11: Removing PWL point (0.0341653,0)
V11: Removing PWL point (0.0342354,5)
V11: Removing PWL point (0.0342653,0)
V11: Removing PWL point (0.0343354,5)
V11: Removing PWL point (0.0343653,0)
V11: Removing PWL point (0.0344354,5)
V11: Removing PWL point (0.0344653,0)
V11: Removing PWL point (0.0345354,5)
V11: Removing PWL point (0.0345653,0)
V11: Removing PWL point (0.0346354,5)
V11: Removing PWL point (0.0346653,0)
V11: Removing PWL point (0.0347288,5)
V11: Removing PWL point (0.0347722,0)
V11: Removing PWL point (0.0348288,5)
V11: Removing PWL point (0.0348722,0)
V11: Removing PWL point (0.0349288,5)
V11: Removing PWL point (0.0349722,0)
V11: Removing PWL point (0.0350288,5)
V11: Removing PWL point (0.0350722,0)
V11: Removing PWL point (0.0351288,5)
V11: Removing PWL point (0.0351722,0)
V11: Removing PWL point (0.0352288,5)
V11: Removing PWL point (0.0352722,0)
V11: Removing PWL point (0.0353288,5)
V11: Removing PWL point (0.0353789,0)
V11: Removing PWL point (0.0354218,5)
V11: Removing PWL point (0.0354789,0)
V11: Removing PWL point (0.0355218,5)
V11: Removing PWL point (0.0355789,0)
V11: Removing PWL point (0.0356218,5)
V11: Removing PWL point (0.0356789,0)
V11: Removing PWL point (0.0357218,5)
V11: Removing PWL point (0.0357789,0)
V11: Removing PWL point (0.0358218,5)
V11: Removing PWL point (0.0358789,0)
V11: Removing PWL point (0.0359218,5)
V11: Removing PWL point (0.0359789,0)
V11: Removing PWL point (0.0360184,5)
V11: Removing PWL point (0.0360858,0)
V11: Removing PWL point (0.0361149,5)
V11: Removing PWL point (0.0361858,0)
V11: Removing PWL point (0.0362149,5)
V11: Removing PWL point (0.0362858,0)
V11: Removing PWL point (0.0363149,5)
V11: Removing PWL point (0.0363858,0)
V11: Removing PWL point (0.0364149,5)
V11: Removing PWL point (0.0364858,0)
V11: Removing PWL point (0.0365149,5)
V11: Removing PWL point (0.0365858,0)
V11: Removing PWL point (0.0366149,5)
V11: Removing PWL point (0.036692,0)
V11: Removing PWL point (0.0367088,5)
V11: Removing PWL point (0.036792,0)
V11: Removing PWL point (0.0368088,5)
V11: Removing PWL point (0.036892,0)
V11: Removing PWL point (0.0369088,5)
V11: Removing PWL point (0.036992,0)
V11: Removing PWL point (0.0370088,5)
V11: Removing PWL point (0.037092,0)
V11: Removing PWL point (0.0371088,5)
V11: Removing PWL point (0.037192,0)
V11: Removing PWL point (0.0372088,5)
V11: Removing PWL point (0.037292,0)
V11: Removing PWL point (0.0373088,5)
V11: Removing PWL point (0.0373936,0)
V11: Removing PWL point (0.0374072,5)
V11: Removing PWL point (0.0374936,0)
V11: Removing PWL point (0.0375072,5)
V11: Removing PWL point (0.0375936,0)
V11: Removing PWL point (0.0376072,5)
V11: Removing PWL point (0.0376936,0)
V11: Removing PWL point (0.0377072,5)
V11: Removing PWL point (0.0377936,0)
V11: Removing PWL point (0.0378072,5)
V11: Removing PWL point (0.0378936,0)
V11: Removing PWL point (0.0379072,5)
V11: Removing PWL point (0.0379936,0)
V11: Removing PWL point (0.0380072,5)
V11: Removing PWL point (0.0380944,0)
V11: Removing PWL point (0.0381064,5)
V11: Removing PWL point (0.0381944,0)
V11: Removing PWL point (0.0382064,5)
V11: Removing PWL point (0.0382944,0)
V11: Removing PWL point (0.0383064,5)
V11: Removing PWL point (0.0383944,0)
V11: Removing PWL point (0.0384064,5)
V11: Removing PWL point (0.0384944,0)
V11: Removing PWL point (0.0385064,5)
V11: Removing PWL point (0.0385944,0)
V11: Removing PWL point (0.0386064,5)
V11: Removing PWL point (0.0386944,0)
V11: Removing PWL point (0.0387064,5)
V11: Removing PWL point (0.0387944,0)
V11: Removing PWL point (0.0388064,5)
V11: Removing PWL point (0.0388944,0)
V11: Removing PWL point (0.0389064,5)
V11: Removing PWL point (0.0389944,0)
V11: Removing PWL point (0.0390064,5)
V11: Removing PWL point (0.0390944,0)
V11: Removing PWL point (0.0391064,5)
V11: Removing PWL point (0.0391944,0)
V11: Removing PWL point (0.0392064,5)
V11: Removing PWL point (0.0392944,0)
V11: Removing PWL point (0.0393064,5)
V11: Removing PWL point (0.0393936,0)
V11: Removing PWL point (0.0394072,5)
V11: Removing PWL point (0.0394936,0)
V11: Removing PWL point (0.0395072,5)
V11: Removing PWL point (0.0395936,0)
V11: Removing PWL point (0.0396072,5)
V11: Removing PWL point (0.0396936,0)
V11: Removing PWL point (0.0397072,5)
V11: Removing PWL point (0.0397936,0)
V11: Removing PWL point (0.0398072,5)
V11: Removing PWL point (0.0398936,0)
V11: Removing PWL point (0.0399072,5)
V11: Removing PWL point (0.0399936,0)
Direct Newton iteration for .op point succeeded.

Date: Sat Feb 27 18:25:46 2021
Total elapsed time: 296.719 seconds.

tnom = 27
temp = 27
method = modified trap
totiter = 2228383
traniter = 2228370
tranpoints = 671599
accept = 481025
rejected = 190574
matrix size = 404
fillins = 244
solver = Alternate
Thread vector: 117.6/51.5[12] 28.2/10.2[12] 14.4/7.0[12] 6.9/4.4[6]  2592/500
Matrix Compiler1: 37.32 KB object code size  22.2/15.6/[9.8]
Matrix Compiler2: 37.32 KB object code size  13.6/16.2/[5.7]

