Circuit: * C:\Users\gkris\Desktop\IR2101\Inverter_v5.asc

V13: Removing PWL point (3.42857e-006,0)
V13: Removing PWL point (6.51429e-005,5)
V13: Removing PWL point (8.91429e-005,0)
V13: Removing PWL point (0.000209143,5)
V13: Removing PWL point (0.000229714,0)
V13: Removing PWL point (0.000349714,5)
V13: Removing PWL point (0.000373714,0)
V13: Removing PWL point (0.000493714,5)
V13: Removing PWL point (0.000517714,0)
V13: Removing PWL point (0.000637714,5)
V13: Removing PWL point (0.000658286,0)
V13: Removing PWL point (0.000778286,5)
V13: Removing PWL point (0.000802286,0)
V13: Removing PWL point (0.000922286,5)
V13: Removing PWL point (0.000946286,0)
V13: Removing PWL point (0.00106286,5)
V13: Removing PWL point (0.00109029,0)
V13: Removing PWL point (0.00120686,5)
V13: Removing PWL point (0.00123086,0)
V13: Removing PWL point (0.00135086,5)
V13: Removing PWL point (0.00137486,0)
V13: Removing PWL point (0.00149143,5)
V13: Removing PWL point (0.00151886,0)
V13: Removing PWL point (0.00163543,5)
V13: Removing PWL point (0.00166286,0)
V13: Removing PWL point (0.001776,5)
V13: Removing PWL point (0.00180343,0)
V13: Removing PWL point (0.00192,5)
V13: Removing PWL point (0.00194743,0)
V13: Removing PWL point (0.002064,5)
V13: Removing PWL point (0.002088,0)
V13: Removing PWL point (0.002208,5)
V13: Removing PWL point (0.002232,0)
V13: Removing PWL point (0.00234857,5)
V13: Removing PWL point (0.002376,0)
V13: Removing PWL point (0.00249257,5)
V13: Removing PWL point (0.00251657,0)
V13: Removing PWL point (0.00263657,5)
V13: Removing PWL point (0.00266057,0)
V13: Removing PWL point (0.00278057,5)
V13: Removing PWL point (0.00280114,0)
V13: Removing PWL point (0.00292114,5)
V13: Removing PWL point (0.00294514,0)
V13: Removing PWL point (0.00306514,5)
V13: Removing PWL point (0.00308914,0)
V13: Removing PWL point (0.00320914,5)
V13: Removing PWL point (0.00322971,0)
V13: Removing PWL point (0.00334971,5)
V13: Removing PWL point (0.00337371,0)
V13: Removing PWL point (0.00349371,5)
V13: Removing PWL point (0.00351771,0)
V13: Removing PWL point (0.00363771,5)
V13: Removing PWL point (0.00365829,0)
V13: Removing PWL point (0.00377829,5)
V13: Removing PWL point (0.00380229,0)
V13: Removing PWL point (0.00392229,5)
V13: Removing PWL point (0.00394629,0)
V13: Removing PWL point (0.00406629,5)
V13: Removing PWL point (0.00408686,0)
V13: Removing PWL point (0.00420686,5)
V13: Removing PWL point (0.00423086,0)
V13: Removing PWL point (0.00435086,5)
V13: Removing PWL point (0.00437486,0)
V13: Removing PWL point (0.00449143,5)
V13: Removing PWL point (0.00451886,0)
V13: Removing PWL point (0.00463543,5)
V13: Removing PWL point (0.00465943,0)
V13: Removing PWL point (0.004776,5)
V13: Removing PWL point (0.00480343,0)
V13: Removing PWL point (0.00492,5)
V13: Removing PWL point (0.00494743,0)
V13: Removing PWL point (0.00506057,5)
V13: Removing PWL point (0.00509143,0)
V13: Removing PWL point (0.00520457,5)
V13: Removing PWL point (0.00523543,0)
V13: Removing PWL point (0.00534514,5)
V13: Removing PWL point (0.00537943,0)
V13: Removing PWL point (0.00548571,5)
V13: Removing PWL point (0.00552686,0)
V13: Removing PWL point (0.00562629,5)
V13: Removing PWL point (0.00567086,0)
V13: Removing PWL point (0.00576686,5)
V13: Removing PWL point (0.00581486,0)
V13: Removing PWL point (0.00590743,5)
V13: Removing PWL point (0.00595886,0)
V13: Removing PWL point (0.00605143,5)
V13: Removing PWL point (0.00610286,0)
V13: Removing PWL point (0.006192,5)
V13: Removing PWL point (0.00625029,0)
V13: Removing PWL point (0.00633257,5)
V13: Removing PWL point (0.00639429,0)
V13: Removing PWL point (0.00647314,5)
V13: Removing PWL point (0.00653829,0)
V13: Removing PWL point (0.00661371,5)
V13: Removing PWL point (0.00668229,0)
V13: Removing PWL point (0.00675429,5)
V13: Removing PWL point (0.00682629,0)
V13: Removing PWL point (0.00689829,5)
V13: Removing PWL point (0.00697371,0)
V13: Removing PWL point (0.00703886,5)
V13: Removing PWL point (0.00711771,0)
V13: Removing PWL point (0.00717943,5)
V13: Removing PWL point (0.00726171,0)
V13: Removing PWL point (0.00732,5)
V13: Removing PWL point (0.00740571,0)
V13: Removing PWL point (0.00746057,5)
V13: Removing PWL point (0.00755314,0)
V13: Removing PWL point (0.00760114,5)
V13: Removing PWL point (0.00769714,0)
V13: Removing PWL point (0.00774171,5)
V13: Removing PWL point (0.00784114,0)
V13: Removing PWL point (0.00788229,5)
V13: Removing PWL point (0.00798514,0)
V13: Removing PWL point (0.00802286,5)
V13: Removing PWL point (0.00812914,0)
V13: Removing PWL point (0.00816686,5)
V13: Removing PWL point (0.00827657,0)
V13: Removing PWL point (0.00830743,5)
V13: Removing PWL point (0.00842057,0)
V13: Removing PWL point (0.008448,5)
V13: Removing PWL point (0.00856457,0)
V13: Removing PWL point (0.00858857,5)
V13: Removing PWL point (0.00870514,0)
V13: Removing PWL point (0.00873257,5)
V13: Removing PWL point (0.00884914,0)
V13: Removing PWL point (0.00887657,5)
V13: Removing PWL point (0.00899314,0)
V13: Removing PWL point (0.00901714,5)
V13: Removing PWL point (0.00913714,0)
V13: Removing PWL point (0.00916114,5)
V13: Removing PWL point (0.00927771,0)
V13: Removing PWL point (0.00930171,5)
V13: Removing PWL point (0.00942171,0)
V13: Removing PWL point (0.00944571,5)
V13: Removing PWL point (0.00956571,0)
V13: Removing PWL point (0.00958629,5)
V13: Removing PWL point (0.00970971,0)
V13: Removing PWL point (0.00973029,5)
V13: Removing PWL point (0.00985029,0)
V13: Removing PWL point (0.00987429,5)
V13: Removing PWL point (0.00999429,0)
V13: Removing PWL point (0.0100149,5)
V13: Removing PWL point (0.0101383,0)
V13: Removing PWL point (0.0101589,5)
V13: Removing PWL point (0.0102789,0)
V13: Removing PWL point (0.0103029,5)
V13: Removing PWL point (0.0104229,0)
V13: Removing PWL point (0.0104434,5)
V13: Removing PWL point (0.0105669,0)
V13: Removing PWL point (0.0105874,5)
V13: Removing PWL point (0.0107074,0)
V13: Removing PWL point (0.0107314,5)
V13: Removing PWL point (0.0108514,0)
V13: Removing PWL point (0.0108754,5)
V13: Removing PWL point (0.010992,0)
V13: Removing PWL point (0.011016,5)
V13: Removing PWL point (0.011136,0)
V13: Removing PWL point (0.01116,5)
V13: Removing PWL point (0.0112766,0)
V13: Removing PWL point (0.011304,5)
V13: Removing PWL point (0.0114206,0)
V13: Removing PWL point (0.011448,5)
V13: Removing PWL point (0.0115611,0)
V13: Removing PWL point (0.011592,5)
V13: Removing PWL point (0.0117051,0)
V13: Removing PWL point (0.0117326,5)
V13: Removing PWL point (0.0118491,0)
V13: Removing PWL point (0.0118766,5)
V13: Removing PWL point (0.0119931,0)
V13: Removing PWL point (0.0120171,5)
V13: Removing PWL point (0.0121337,0)
V13: Removing PWL point (0.0121611,5)
V13: Removing PWL point (0.0122777,0)
V13: Removing PWL point (0.0123017,5)
V13: Removing PWL point (0.0124217,0)
V13: Removing PWL point (0.0124457,5)
V13: Removing PWL point (0.0125657,0)
V13: Removing PWL point (0.0125897,5)
V13: Removing PWL point (0.0127063,0)
V13: Removing PWL point (0.0127303,5)
V13: Removing PWL point (0.0128503,0)
V13: Removing PWL point (0.0128743,5)
V13: Removing PWL point (0.0129943,0)
V13: Removing PWL point (0.0130149,5)
V13: Removing PWL point (0.0131383,0)
V13: Removing PWL point (0.0131589,5)
V13: Removing PWL point (0.0132789,0)
V13: Removing PWL point (0.0133029,5)
V13: Removing PWL point (0.0134229,0)
V13: Removing PWL point (0.0134434,5)
V13: Removing PWL point (0.0135669,0)
V13: Removing PWL point (0.0135874,5)
V13: Removing PWL point (0.0137074,0)
V13: Removing PWL point (0.0137314,5)
V13: Removing PWL point (0.0138514,0)
V13: Removing PWL point (0.013872,5)
V13: Removing PWL point (0.013992,0)
V13: Removing PWL point (0.014016,5)
V13: Removing PWL point (0.014136,0)
V13: Removing PWL point (0.01416,5)
V13: Removing PWL point (0.01428,0)
V13: Removing PWL point (0.014304,5)
V13: Removing PWL point (0.0144206,0)
V13: Removing PWL point (0.0144446,5)
V13: Removing PWL point (0.0145646,0)
V13: Removing PWL point (0.0145886,5)
V13: Removing PWL point (0.0147051,0)
V13: Removing PWL point (0.0147326,5)
V13: Removing PWL point (0.0148491,0)
V13: Removing PWL point (0.0148766,5)
V13: Removing PWL point (0.0149897,0)
V13: Removing PWL point (0.0150206,5)
V13: Removing PWL point (0.0151337,0)
V13: Removing PWL point (0.0151646,5)
V13: Removing PWL point (0.0152743,0)
V13: Removing PWL point (0.0153086,5)
V13: Removing PWL point (0.0154149,0)
V13: Removing PWL point (0.0154526,5)
V13: Removing PWL point (0.0155554,0)
V13: Removing PWL point (0.0155966,5)
V13: Removing PWL point (0.0156994,0)
V13: Removing PWL point (0.0157406,5)
V13: Removing PWL point (0.01584,0)
V13: Removing PWL point (0.015888,5)
V13: Removing PWL point (0.0159806,0)
V13: Removing PWL point (0.016032,5)
V13: Removing PWL point (0.0161211,0)
V13: Removing PWL point (0.016176,5)
V13: Removing PWL point (0.0162617,0)
V13: Removing PWL point (0.01632,5)
V13: Removing PWL point (0.0164023,0)
V13: Removing PWL point (0.0164674,5)
V13: Removing PWL point (0.0165429,0)
V13: Removing PWL point (0.0166114,5)
V13: Removing PWL point (0.0166869,0)
V13: Removing PWL point (0.0167554,5)
V13: Removing PWL point (0.0168274,0)
V13: Removing PWL point (0.0168994,5)
V13: Removing PWL point (0.016968,0)
V13: Removing PWL point (0.0170469,5)
V13: Removing PWL point (0.0171086,0)
V13: Removing PWL point (0.0171909,5)
V13: Removing PWL point (0.0172491,0)
V13: Removing PWL point (0.0173349,5)
V13: Removing PWL point (0.0173897,0)
V13: Removing PWL point (0.0174789,5)
V13: Removing PWL point (0.0175303,0)
V13: Removing PWL point (0.0176229,5)
V13: Removing PWL point (0.0176709,0)
V13: Removing PWL point (0.0177703,5)
V13: Removing PWL point (0.0178114,0)
V13: Removing PWL point (0.0179143,5)
V13: Removing PWL point (0.0179554,0)
V13: Removing PWL point (0.0180583,5)
V13: Removing PWL point (0.018096,0)
V13: Removing PWL point (0.0182023,5)
V13: Removing PWL point (0.0182366,0)
V13: Removing PWL point (0.0183463,5)
V13: Removing PWL point (0.0183771,0)
V13: Removing PWL point (0.0184903,5)
V13: Removing PWL point (0.0185177,0)
V13: Removing PWL point (0.0186343,5)
V13: Removing PWL point (0.0186617,0)
V13: Removing PWL point (0.0187783,5)
V13: Removing PWL point (0.0188023,0)
V13: Removing PWL point (0.0189223,5)
V13: Removing PWL point (0.0189463,0)
V13: Removing PWL point (0.0190629,5)
V13: Removing PWL point (0.0190903,0)
V13: Removing PWL point (0.0192069,5)
V13: Removing PWL point (0.0192309,0)
V13: Removing PWL point (0.0193509,5)
V13: Removing PWL point (0.0193749,0)
V13: Removing PWL point (0.0194949,5)
V13: Removing PWL point (0.0195154,0)
V13: Removing PWL point (0.0196354,5)
V13: Removing PWL point (0.0196594,0)
V13: Removing PWL point (0.0197794,5)
V13: Removing PWL point (0.0198034,0)
V13: Removing PWL point (0.0199234,5)
V13: Removing PWL point (0.019944,0)
V13: Removing PWL point (0.020064,5)
V13: Removing PWL point (0.020088,0)
V13: Removing PWL point (0.020208,5)
V13: Removing PWL point (0.020232,0)
V13: Removing PWL point (0.020352,5)
V13: Removing PWL point (0.0203726,0)
V13: Removing PWL point (0.0204926,5)
V13: Removing PWL point (0.0205166,0)
V13: Removing PWL point (0.0206366,5)
V13: Removing PWL point (0.0206606,0)
V13: Removing PWL point (0.0207806,5)
V13: Removing PWL point (0.0208011,0)
V13: Removing PWL point (0.0209211,5)
V13: Removing PWL point (0.0209451,0)
V13: Removing PWL point (0.0210651,5)
V13: Removing PWL point (0.0210891,0)
V13: Removing PWL point (0.0212057,5)
V13: Removing PWL point (0.0212331,0)
V13: Removing PWL point (0.0213497,5)
V13: Removing PWL point (0.0213737,0)
V13: Removing PWL point (0.0214903,5)
V13: Removing PWL point (0.0215177,0)
V13: Removing PWL point (0.0216343,5)
V13: Removing PWL point (0.0216617,0)
V13: Removing PWL point (0.0217783,5)
V13: Removing PWL point (0.0218057,0)
V13: Removing PWL point (0.0219189,5)
V13: Removing PWL point (0.0219463,0)
V13: Removing PWL point (0.0220629,5)
V13: Removing PWL point (0.0220903,0)
V13: Removing PWL point (0.0222069,5)
V13: Removing PWL point (0.0222309,0)
V13: Removing PWL point (0.0223509,5)
V13: Removing PWL point (0.0223749,0)
V13: Removing PWL point (0.0224949,5)
V13: Removing PWL point (0.0225154,0)
V13: Removing PWL point (0.0226354,5)
V13: Removing PWL point (0.0226594,0)
V13: Removing PWL point (0.0227794,5)
V13: Removing PWL point (0.0228034,0)
V13: Removing PWL point (0.0229234,5)
V13: Removing PWL point (0.022944,0)
V13: Removing PWL point (0.023064,5)
V13: Removing PWL point (0.023088,0)
V13: Removing PWL point (0.023208,5)
V13: Removing PWL point (0.023232,0)
V13: Removing PWL point (0.023352,5)
V13: Removing PWL point (0.0233726,0)
V13: Removing PWL point (0.0234926,5)
V13: Removing PWL point (0.0235166,0)
V13: Removing PWL point (0.0236366,5)
V13: Removing PWL point (0.0236606,0)
V13: Removing PWL point (0.0237806,5)
V13: Removing PWL point (0.0238011,0)
V13: Removing PWL point (0.0239211,5)
V13: Removing PWL point (0.0239451,0)
V13: Removing PWL point (0.0240651,5)
V13: Removing PWL point (0.0240891,0)
V13: Removing PWL point (0.0242091,5)
V13: Removing PWL point (0.0242297,0)
V13: Removing PWL point (0.0243497,5)
V13: Removing PWL point (0.0243737,0)
V13: Removing PWL point (0.0244937,5)
V13: Removing PWL point (0.0245177,0)
V13: Removing PWL point (0.0246343,5)
V13: Removing PWL point (0.0246617,0)
V13: Removing PWL point (0.0247783,5)
V13: Removing PWL point (0.0248057,0)
V13: Removing PWL point (0.0249189,5)
V13: Removing PWL point (0.0249463,0)
V13: Removing PWL point (0.0250629,5)
V13: Removing PWL point (0.0250903,0)
V13: Removing PWL point (0.0252034,5)
V13: Removing PWL point (0.0252377,0)
V13: Removing PWL point (0.025344,5)
V13: Removing PWL point (0.0253817,0)
V13: Removing PWL point (0.025488,5)
V13: Removing PWL point (0.0255257,0)
V13: Removing PWL point (0.0256286,5)
V13: Removing PWL point (0.0256697,0)
V13: Removing PWL point (0.0257691,5)
V13: Removing PWL point (0.0258137,0)
V13: Removing PWL point (0.0259097,5)
V13: Removing PWL point (0.0259611,0)
V13: Removing PWL point (0.0260503,5)
V13: Removing PWL point (0.0261051,0)
V13: Removing PWL point (0.0261909,5)
V13: Removing PWL point (0.0262491,0)
V13: Removing PWL point (0.0263314,5)
V13: Removing PWL point (0.0263931,0)
V13: Removing PWL point (0.026472,5)
V13: Removing PWL point (0.0265371,0)
V13: Removing PWL point (0.026616,5)
V13: Removing PWL point (0.0266846,0)
V13: Removing PWL point (0.0267566,5)
V13: Removing PWL point (0.0268286,0)
V13: Removing PWL point (0.0268971,5)
V13: Removing PWL point (0.0269726,0)
V13: Removing PWL point (0.0270377,5)
V13: Removing PWL point (0.0271166,0)
V13: Removing PWL point (0.0271783,5)
V13: Removing PWL point (0.027264,0)
V13: Removing PWL point (0.0273189,5)
V13: Removing PWL point (0.027408,0)
V13: Removing PWL point (0.0274594,5)
V13: Removing PWL point (0.027552,0)
V13: Removing PWL point (0.0276,5)
V13: Removing PWL point (0.027696,0)
V13: Removing PWL point (0.0277406,5)
V13: Removing PWL point (0.02784,0)
V13: Removing PWL point (0.0278846,5)
V13: Removing PWL point (0.0279874,0)
V13: Removing PWL point (0.0280251,5)
V13: Removing PWL point (0.0281314,0)
V13: Removing PWL point (0.0281657,5)
V13: Removing PWL point (0.0282754,0)
V13: Removing PWL point (0.0283063,5)
V13: Removing PWL point (0.0284194,0)
V13: Removing PWL point (0.0284469,5)
V13: Removing PWL point (0.0285634,0)
V13: Removing PWL point (0.0285909,5)
V13: Removing PWL point (0.0287074,0)
V13: Removing PWL point (0.0287314,5)
V13: Removing PWL point (0.028848,0)
V13: Removing PWL point (0.0288754,5)
V13: Removing PWL point (0.028992,0)
V13: Removing PWL point (0.029016,5)
V13: Removing PWL point (0.029136,0)
V13: Removing PWL point (0.02916,5)
V13: Removing PWL point (0.02928,0)
V13: Removing PWL point (0.029304,5)
V13: Removing PWL point (0.0294206,0)
V13: Removing PWL point (0.0294446,5)
V13: Removing PWL point (0.0295646,0)
V13: Removing PWL point (0.0295886,5)
V13: Removing PWL point (0.0297086,0)
V13: Removing PWL point (0.0297291,5)
V13: Removing PWL point (0.0298526,0)
V13: Removing PWL point (0.0298731,5)
V13: Removing PWL point (0.0299931,0)
V13: Removing PWL point (0.0300171,5)
V13: Removing PWL point (0.0301371,0)
V13: Removing PWL point (0.0301577,5)
V13: Removing PWL point (0.0302811,0)
V13: Removing PWL point (0.0303017,5)
V13: Removing PWL point (0.0304217,0)
V13: Removing PWL point (0.0304457,5)
V13: Removing PWL point (0.0305657,0)
V13: Removing PWL point (0.0305863,5)
V13: Removing PWL point (0.0307063,0)
V13: Removing PWL point (0.0307303,5)
V13: Removing PWL point (0.0308503,0)
V13: Removing PWL point (0.0308743,5)
V13: Removing PWL point (0.0309943,0)
V13: Removing PWL point (0.0310183,5)
V13: Removing PWL point (0.0311349,0)
V13: Removing PWL point (0.0311589,5)
V13: Removing PWL point (0.0312789,0)
V13: Removing PWL point (0.0313029,5)
V13: Removing PWL point (0.0314194,0)
V13: Removing PWL point (0.0314469,5)
V13: Removing PWL point (0.0315634,0)
V13: Removing PWL point (0.0315909,5)
V13: Removing PWL point (0.031704,0)
V13: Removing PWL point (0.0317349,5)
V13: Removing PWL point (0.031848,0)
V13: Removing PWL point (0.0318754,5)
V13: Removing PWL point (0.031992,0)
V13: Removing PWL point (0.0320194,5)
V13: Removing PWL point (0.032136,0)
V13: Removing PWL point (0.03216,5)
V13: Removing PWL point (0.03228,0)
V13: Removing PWL point (0.032304,5)
V13: Removing PWL point (0.0324206,0)
V13: Removing PWL point (0.0324446,5)
V13: Removing PWL point (0.0325646,0)
V13: Removing PWL point (0.0325886,5)
V13: Removing PWL point (0.0327086,0)
V13: Removing PWL point (0.0327326,5)
V13: Removing PWL point (0.0328526,0)
V13: Removing PWL point (0.0328731,5)
V13: Removing PWL point (0.0329931,0)
V13: Removing PWL point (0.0330171,5)
V13: Removing PWL point (0.0331371,0)
V13: Removing PWL point (0.0331577,5)
V13: Removing PWL point (0.0332811,0)
V13: Removing PWL point (0.0333017,5)
V13: Removing PWL point (0.0334217,0)
V13: Removing PWL point (0.0334457,5)
V13: Removing PWL point (0.0335657,0)
V13: Removing PWL point (0.0335863,5)
V13: Removing PWL point (0.0337097,0)
V13: Removing PWL point (0.0337303,5)
V13: Removing PWL point (0.0338503,0)
V13: Removing PWL point (0.0338743,5)
V13: Removing PWL point (0.0339943,0)
V13: Removing PWL point (0.0340183,5)
V13: Removing PWL point (0.0341349,0)
V13: Removing PWL point (0.0341589,5)
V13: Removing PWL point (0.0342789,0)
V13: Removing PWL point (0.0343029,5)
V13: Removing PWL point (0.0344229,0)
V13: Removing PWL point (0.0344469,5)
V13: Removing PWL point (0.0345634,0)
V13: Removing PWL point (0.0345909,5)
V13: Removing PWL point (0.0347074,0)
V13: Removing PWL point (0.0347314,5)
V13: Removing PWL point (0.034848,0)
V13: Removing PWL point (0.0348754,5)
V13: Removing PWL point (0.034992,0)
V13: Removing PWL point (0.0350194,5)
V13: Removing PWL point (0.0351326,0)
V13: Removing PWL point (0.0351634,5)
V13: Removing PWL point (0.0352766,0)
V13: Removing PWL point (0.0353074,5)
V13: Removing PWL point (0.0354171,0)
V13: Removing PWL point (0.0354514,5)
V13: Removing PWL point (0.0355577,0)
V13: Removing PWL point (0.0355989,5)
V13: Removing PWL point (0.0356983,0)
V13: Removing PWL point (0.0357429,5)
V13: Removing PWL point (0.0358389,0)
V13: Removing PWL point (0.0358869,5)
V13: Removing PWL point (0.0359794,0)
V13: Removing PWL point (0.0360309,5)
V13: Removing PWL point (0.03612,0)
V13: Removing PWL point (0.0361783,5)
V13: Removing PWL point (0.0362606,0)
V13: Removing PWL point (0.0363223,5)
V13: Removing PWL point (0.0364046,0)
V13: Removing PWL point (0.0364663,5)
V13: Removing PWL point (0.0365451,0)
V13: Removing PWL point (0.0366103,5)
V13: Removing PWL point (0.0366857,0)
V13: Removing PWL point (0.0367543,5)
V13: Removing PWL point (0.0368263,0)
V13: Removing PWL point (0.0369017,5)
V13: Removing PWL point (0.0369669,0)
V13: Removing PWL point (0.0370457,5)
V13: Removing PWL point (0.0371074,0)
V13: Removing PWL point (0.0371897,5)
V13: Removing PWL point (0.037248,0)
V13: Removing PWL point (0.0373337,5)
V13: Removing PWL point (0.0373886,0)
V13: Removing PWL point (0.0374811,5)
V13: Removing PWL point (0.0375291,0)
V13: Removing PWL point (0.0376251,5)
V13: Removing PWL point (0.0376731,0)
V13: Removing PWL point (0.0377691,5)
V13: Removing PWL point (0.0378137,0)
V13: Removing PWL point (0.0379131,5)
V13: Removing PWL point (0.0379543,0)
V13: Removing PWL point (0.0380571,5)
V13: Removing PWL point (0.0380949,0)
V13: Removing PWL point (0.0382046,5)
V13: Removing PWL point (0.0382354,0)
V13: Removing PWL point (0.0383486,5)
V13: Removing PWL point (0.038376,0)
V13: Removing PWL point (0.0384926,5)
V13: Removing PWL point (0.03852,0)
V13: Removing PWL point (0.0386331,5)
V13: Removing PWL point (0.0386606,0)
V13: Removing PWL point (0.0387771,5)
V13: Removing PWL point (0.0388046,0)
V13: Removing PWL point (0.0389211,5)
V13: Removing PWL point (0.0389451,0)
V13: Removing PWL point (0.0390651,5)
V13: Removing PWL point (0.0390891,0)
V13: Removing PWL point (0.0392091,5)
V13: Removing PWL point (0.0392297,0)
V13: Removing PWL point (0.0393497,5)
V13: Removing PWL point (0.0393737,0)
V13: Removing PWL point (0.0394937,5)
V13: Removing PWL point (0.0395177,0)
V13: Removing PWL point (0.0396377,5)
V13: Removing PWL point (0.0396583,0)
V13: Removing PWL point (0.0397783,5)
V13: Removing PWL point (0.0398023,0)
V13: Removing PWL point (0.0399223,5)
V13: Removing PWL point (0.0399463,0)
V13: Removing PWL point (0.0400663,5)
V13: Removing PWL point (0.0400869,0)
V13: Removing PWL point (0.0402069,5)
V13: Removing PWL point (0.0402309,0)
V13: Removing PWL point (0.0403509,5)
V13: Removing PWL point (0.0403749,0)
V13: Removing PWL point (0.0404949,5)
V13: Removing PWL point (0.0405154,0)
V13: Removing PWL point (0.0406354,5)
V13: Removing PWL point (0.0406594,0)
V13: Removing PWL point (0.0407794,5)
V13: Removing PWL point (0.0408034,0)
V13: Removing PWL point (0.0409234,5)
V13: Removing PWL point (0.040944,0)
V13: Removing PWL point (0.041064,5)
V13: Removing PWL point (0.041088,0)
V13: Removing PWL point (0.041208,5)
V13: Removing PWL point (0.041232,0)
V13: Removing PWL point (0.0413486,5)
V13: Removing PWL point (0.041376,0)
V13: Removing PWL point (0.0414926,5)
V13: Removing PWL point (0.04152,0)
V13: Removing PWL point (0.0416331,5)
V13: Removing PWL point (0.0416606,0)
V13: Removing PWL point (0.0417771,5)
V13: Removing PWL point (0.0418046,0)
V13: Removing PWL point (0.0419211,5)
V13: Removing PWL point (0.0419486,0)
V13: Removing PWL point (0.0420651,5)
V13: Removing PWL point (0.0420891,0)
V13: Removing PWL point (0.0422057,5)
V13: Removing PWL point (0.0422331,0)
V13: Removing PWL point (0.0423497,5)
V13: Removing PWL point (0.0423737,0)
V13: Removing PWL point (0.0424937,5)
V13: Removing PWL point (0.0425177,0)
V13: Removing PWL point (0.0426377,5)
V13: Removing PWL point (0.0426583,0)
V13: Removing PWL point (0.0427783,5)
V13: Removing PWL point (0.0428023,0)
V13: Removing PWL point (0.0429223,5)
V13: Removing PWL point (0.0429463,0)
V13: Removing PWL point (0.0430663,5)
V13: Removing PWL point (0.0430869,0)
V13: Removing PWL point (0.0432069,5)
V13: Removing PWL point (0.0432309,0)
V13: Removing PWL point (0.0433509,5)
V13: Removing PWL point (0.0433749,0)
V13: Removing PWL point (0.0434949,5)
V13: Removing PWL point (0.0435154,0)
V13: Removing PWL point (0.0436354,5)
V13: Removing PWL point (0.0436594,0)
V13: Removing PWL point (0.0437794,5)
V13: Removing PWL point (0.0438034,0)
V13: Removing PWL point (0.0439234,5)
V13: Removing PWL point (0.043944,0)
V13: Removing PWL point (0.044064,5)
V13: Removing PWL point (0.044088,0)
V13: Removing PWL point (0.044208,5)
V13: Removing PWL point (0.044232,0)
V13: Removing PWL point (0.044352,5)
V13: Removing PWL point (0.044376,0)
V13: Removing PWL point (0.0444926,5)
V13: Removing PWL point (0.0445166,0)
V13: Removing PWL point (0.0446366,5)
V13: Removing PWL point (0.0446606,0)
V13: Removing PWL point (0.0447771,5)
V13: Removing PWL point (0.0448046,0)
V13: Removing PWL point (0.0449211,5)
V13: Removing PWL point (0.0449486,0)
V13: Removing PWL point (0.0450617,5)
V13: Removing PWL point (0.0450926,0)
V13: Removing PWL point (0.0452057,5)
V13: Removing PWL point (0.0452366,0)
V13: Removing PWL point (0.0453463,5)
V13: Removing PWL point (0.0453806,0)
V13: Removing PWL point (0.0454869,5)
V13: Removing PWL point (0.0455246,0)
V13: Removing PWL point (0.0456274,5)
V13: Removing PWL point (0.0456686,0)
V13: Removing PWL point (0.045768,5)
V13: Removing PWL point (0.045816,0)
V13: Removing PWL point (0.0459086,5)
V13: Removing PWL point (0.04596,0)
V13: Removing PWL point (0.0460491,5)
V13: Removing PWL point (0.046104,0)
V13: Removing PWL point (0.0461931,5)
V13: Removing PWL point (0.046248,0)
V13: Removing PWL point (0.0463337,5)
V13: Removing PWL point (0.0463954,0)
V13: Removing PWL point (0.0464743,5)
V13: Removing PWL point (0.0465394,0)
V13: Removing PWL point (0.0466149,5)
V13: Removing PWL point (0.0466834,0)
V13: Removing PWL point (0.0467554,5)
V13: Removing PWL point (0.0468274,0)
V13: Removing PWL point (0.046896,5)
V13: Removing PWL point (0.0469749,0)
V13: Removing PWL point (0.0470366,5)
V13: Removing PWL point (0.0471189,0)
V13: Removing PWL point (0.0471771,5)
V13: Removing PWL point (0.0472629,0)
V13: Removing PWL point (0.0473177,5)
V13: Removing PWL point (0.0474069,0)
V13: Removing PWL point (0.0474583,5)
V13: Removing PWL point (0.0475509,0)
V13: Removing PWL point (0.0476023,5)
V13: Removing PWL point (0.0476983,0)
V13: Removing PWL point (0.0477429,5)
V13: Removing PWL point (0.0478423,0)
V13: Removing PWL point (0.0478834,5)
V13: Removing PWL point (0.0479863,0)
V13: Removing PWL point (0.048024,5)
V13: Removing PWL point (0.0481303,0)
V13: Removing PWL point (0.0481646,5)
V13: Removing PWL point (0.0482743,0)
V13: Removing PWL point (0.0483051,5)
V13: Removing PWL point (0.0484183,0)
V13: Removing PWL point (0.0484491,5)
V13: Removing PWL point (0.0485623,0)
V13: Removing PWL point (0.0485897,5)
V13: Removing PWL point (0.0487063,0)
V13: Removing PWL point (0.0487337,5)
V13: Removing PWL point (0.0488503,0)
V13: Removing PWL point (0.0488743,5)
V13: Removing PWL point (0.0489943,0)
V13: Removing PWL point (0.0490183,5)
V13: Removing PWL point (0.0491349,0)
V13: Removing PWL point (0.0491589,5)
V13: Removing PWL point (0.0492789,0)
V13: Removing PWL point (0.0493029,5)
V13: Removing PWL point (0.0494229,0)
V13: Removing PWL point (0.0494434,5)
V13: Removing PWL point (0.0495669,0)
V13: Removing PWL point (0.0495874,5)
V13: Removing PWL point (0.0497074,0)
V13: Removing PWL point (0.0497314,5)
V13: Removing PWL point (0.0498514,0)
V13: Removing PWL point (0.049872,5)
V13: Removing PWL point (0.0499954,0)
V13: Removing PWL point (0.050016,5)
V13: Removing PWL point (0.050136,0)
V13: Removing PWL point (0.05016,5)
V13: Removing PWL point (0.05028,0)
V13: Removing PWL point (0.0503006,5)
V13: Removing PWL point (0.050424,0)
V13: Removing PWL point (0.0504446,5)
V13: Removing PWL point (0.0505646,0)
V13: Removing PWL point (0.0505886,5)
V13: Removing PWL point (0.0507086,0)
V13: Removing PWL point (0.0507326,5)
V13: Removing PWL point (0.0508491,0)
V13: Removing PWL point (0.0508731,5)
V13: Removing PWL point (0.0509931,0)
V13: Removing PWL point (0.0510171,5)
V13: Removing PWL point (0.0511371,0)
V13: Removing PWL point (0.0511611,5)
V13: Removing PWL point (0.0512777,0)
V13: Removing PWL point (0.0513051,5)
V13: Removing PWL point (0.0514217,0)
V13: Removing PWL point (0.0514457,5)
V13: Removing PWL point (0.0515623,0)
V13: Removing PWL point (0.0515897,5)
V13: Removing PWL point (0.0517063,0)
V13: Removing PWL point (0.0517337,5)
V13: Removing PWL point (0.0518503,0)
V13: Removing PWL point (0.0518743,5)
V13: Removing PWL point (0.0519909,0)
V13: Removing PWL point (0.0520183,5)
V13: Removing PWL point (0.0521349,0)
V13: Removing PWL point (0.0521623,5)
V13: Removing PWL point (0.0522789,0)
V13: Removing PWL point (0.0523029,5)
V13: Removing PWL point (0.0524229,0)
V13: Removing PWL point (0.0524469,5)
V13: Removing PWL point (0.0525634,0)
V13: Removing PWL point (0.0525874,5)
V13: Removing PWL point (0.0527074,0)
V13: Removing PWL point (0.0527314,5)
V13: Removing PWL point (0.0528514,0)
V13: Removing PWL point (0.052872,5)
V13: Removing PWL point (0.0529954,0)
V13: Removing PWL point (0.053016,5)
V13: Removing PWL point (0.053136,0)
V13: Removing PWL point (0.05316,5)
V13: Removing PWL point (0.05328,0)
V13: Removing PWL point (0.0533006,5)
V13: Removing PWL point (0.053424,0)
V13: Removing PWL point (0.0534446,5)
V13: Removing PWL point (0.0535646,0)
V13: Removing PWL point (0.0535886,5)
V13: Removing PWL point (0.0537086,0)
V13: Removing PWL point (0.0537291,5)
V13: Removing PWL point (0.0538526,0)
V13: Removing PWL point (0.0538731,5)
V13: Removing PWL point (0.0539931,0)
V13: Removing PWL point (0.0540171,5)
V13: Removing PWL point (0.0541371,0)
V13: Removing PWL point (0.0541611,5)
V13: Removing PWL point (0.0542777,0)
V13: Removing PWL point (0.0543017,5)
V13: Removing PWL point (0.0544217,0)
V13: Removing PWL point (0.0544457,5)
V13: Removing PWL point (0.0545657,0)
V13: Removing PWL point (0.0545897,5)
V13: Removing PWL point (0.0547063,0)
V13: Removing PWL point (0.0547337,5)
V13: Removing PWL point (0.0548503,0)
V13: Removing PWL point (0.0548777,5)
V13: Removing PWL point (0.0549909,0)
V13: Removing PWL point (0.0550183,5)
V13: Removing PWL point (0.0551349,0)
V13: Removing PWL point (0.0551657,5)
V13: Removing PWL point (0.0552754,0)
V13: Removing PWL point (0.0553097,5)
V13: Removing PWL point (0.055416,0)
V13: Removing PWL point (0.0554537,5)
V13: Removing PWL point (0.0555566,0)
V13: Removing PWL point (0.0555977,5)
V13: Removing PWL point (0.0556971,0)
V13: Removing PWL point (0.0557417,5)
V13: Removing PWL point (0.0558377,0)
V13: Removing PWL point (0.0558857,5)
V13: Removing PWL point (0.0559817,0)
V13: Removing PWL point (0.0560331,5)
V13: Removing PWL point (0.0561223,0)
V13: Removing PWL point (0.0561771,5)
V13: Removing PWL point (0.0562629,0)
V13: Removing PWL point (0.0563211,5)
V13: Removing PWL point (0.0564034,0)
V13: Removing PWL point (0.0564651,5)
V13: Removing PWL point (0.056544,0)
V13: Removing PWL point (0.0566126,5)
V13: Removing PWL point (0.0566846,0)
V13: Removing PWL point (0.0567566,5)
V13: Removing PWL point (0.0568251,0)
V13: Removing PWL point (0.0569006,5)
V13: Removing PWL point (0.0569657,0)
V13: Removing PWL point (0.0570446,5)
V13: Removing PWL point (0.0571063,0)
V13: Removing PWL point (0.057192,5)
V13: Removing PWL point (0.0572469,0)
V13: Removing PWL point (0.057336,5)
V13: Removing PWL point (0.0573909,0)
V13: Removing PWL point (0.05748,5)
V13: Removing PWL point (0.0575314,0)
V13: Removing PWL point (0.057624,5)
V13: Removing PWL point (0.057672,0)
V13: Removing PWL point (0.057768,5)
V13: Removing PWL point (0.0578126,0)
V13: Removing PWL point (0.0579154,5)
V13: Removing PWL point (0.0579531,0)
V13: Removing PWL point (0.0580594,5)
V13: Removing PWL point (0.0580937,0)
V13: Removing PWL point (0.0582034,5)
V13: Removing PWL point (0.0582343,0)
V13: Removing PWL point (0.0583474,5)
V13: Removing PWL point (0.0583783,0)
V13: Removing PWL point (0.0584914,5)
V13: Removing PWL point (0.0585189,0)
V13: Removing PWL point (0.0586354,5)
V13: Removing PWL point (0.0586629,0)
V13: Removing PWL point (0.0587794,5)
V13: Removing PWL point (0.0588034,0)
V13: Removing PWL point (0.05892,5)
V13: Removing PWL point (0.0589474,0)
V13: Removing PWL point (0.059064,5)
V13: Removing PWL point (0.059088,0)
V13: Removing PWL point (0.059208,5)
V13: Removing PWL point (0.059232,0)
V13: Removing PWL point (0.059352,5)
V13: Removing PWL point (0.0593726,0)
V13: Removing PWL point (0.0594926,5)
V13: Removing PWL point (0.0595166,0)
V13: Removing PWL point (0.0596366,5)
V13: Removing PWL point (0.0596606,0)
V13: Removing PWL point (0.0597806,5)
V13: Removing PWL point (0.0598011,0)
V13: Removing PWL point (0.0599211,5)
V13: Removing PWL point (0.0599451,0)
V13: Removing PWL point (0.0600651,5)
V13: Removing PWL point (0.0600891,0)
V13: Removing PWL point (0.0602091,5)
V13: Removing PWL point (0.0602297,0)
V13: Removing PWL point (0.0603497,5)
V13: Removing PWL point (0.0603737,0)
V13: Removing PWL point (0.0604937,5)
V13: Removing PWL point (0.0605177,0)
V13: Removing PWL point (0.0606377,5)
V13: Removing PWL point (0.0606583,0)
V13: Removing PWL point (0.0607783,5)
V13: Removing PWL point (0.0608023,0)
V13: Removing PWL point (0.0609223,5)
V13: Removing PWL point (0.0609463,0)
V13: Removing PWL point (0.0610629,5)
V13: Removing PWL point (0.0610903,0)
V13: Removing PWL point (0.0612069,5)
V13: Removing PWL point (0.0612309,0)
V13: Removing PWL point (0.0613474,5)
V13: Removing PWL point (0.0613749,0)
V13: Removing PWL point (0.0614914,5)
V13: Removing PWL point (0.0615189,0)
V13: Removing PWL point (0.0616354,5)
V13: Removing PWL point (0.0616629,0)
V13: Removing PWL point (0.061776,5)
V13: Removing PWL point (0.0618034,0)
V13: Removing PWL point (0.06192,5)
V13: Removing PWL point (0.0619474,0)
V13: Removing PWL point (0.062064,5)
V13: Removing PWL point (0.062088,0)
V13: Removing PWL point (0.062208,5)
V13: Removing PWL point (0.062232,0)
V13: Removing PWL point (0.0623486,5)
V13: Removing PWL point (0.062376,0)
V13: Removing PWL point (0.0624926,5)
V13: Removing PWL point (0.0625166,0)
V13: Removing PWL point (0.0626366,5)
V13: Removing PWL point (0.0626606,0)
V13: Removing PWL point (0.0627806,5)
V13: Removing PWL point (0.0628011,0)
V13: Removing PWL point (0.0629211,5)
V13: Removing PWL point (0.0629451,0)
V13: Removing PWL point (0.0630651,5)
V13: Removing PWL point (0.0630891,0)
V13: Removing PWL point (0.0632091,5)
V13: Removing PWL point (0.0632297,0)
V13: Removing PWL point (0.0633497,5)
V13: Removing PWL point (0.0633737,0)
V13: Removing PWL point (0.0634937,5)
V13: Removing PWL point (0.0635177,0)
V13: Removing PWL point (0.0636377,5)
V13: Removing PWL point (0.0636583,0)
V13: Removing PWL point (0.0637783,5)
V13: Removing PWL point (0.0638023,0)
V13: Removing PWL point (0.0639223,5)
V13: Removing PWL point (0.0639463,0)
V13: Removing PWL point (0.0640663,5)
V13: Removing PWL point (0.0640869,0)
V13: Removing PWL point (0.0642069,5)
V13: Removing PWL point (0.0642309,0)
V13: Removing PWL point (0.0643509,5)
V13: Removing PWL point (0.0643749,0)
V13: Removing PWL point (0.0644914,5)
V13: Removing PWL point (0.0645189,0)
V13: Removing PWL point (0.0646354,5)
V13: Removing PWL point (0.0646594,0)
V13: Removing PWL point (0.0647794,5)
V13: Removing PWL point (0.0648034,0)
V13: Removing PWL point (0.06492,5)
V13: Removing PWL point (0.0649474,0)
V13: Removing PWL point (0.065064,5)
V13: Removing PWL point (0.0650914,0)
V13: Removing PWL point (0.0652046,5)
V13: Removing PWL point (0.0652354,0)
V13: Removing PWL point (0.0653451,5)
V13: Removing PWL point (0.0653794,0)
V13: Removing PWL point (0.0654857,5)
V13: Removing PWL point (0.0655269,0)
V13: Removing PWL point (0.0656263,5)
V13: Removing PWL point (0.0656709,0)
V13: Removing PWL point (0.0657669,5)
V13: Removing PWL point (0.0658149,0)
V13: Removing PWL point (0.0659109,5)
V13: Removing PWL point (0.0659589,0)
V13: Removing PWL point (0.0660514,5)
V13: Removing PWL point (0.0661063,0)
V13: Removing PWL point (0.066192,5)
V13: Removing PWL point (0.0662503,0)
V13: Removing PWL point (0.0663326,5)
V13: Removing PWL point (0.0663943,0)
V13: Removing PWL point (0.0664731,5)
V13: Removing PWL point (0.0665383,0)
V13: Removing PWL point (0.0666137,5)
V13: Removing PWL point (0.0666823,0)
V13: Removing PWL point (0.0667543,5)
V13: Removing PWL point (0.0668297,0)
V13: Removing PWL point (0.0668949,5)
V13: Removing PWL point (0.0669737,0)
V13: Removing PWL point (0.0670354,5)
V13: Removing PWL point (0.0671177,0)
V13: Removing PWL point (0.0671794,5)
V13: Removing PWL point (0.0672617,0)
V13: Removing PWL point (0.06732,5)
V13: Removing PWL point (0.0674091,0)
V13: Removing PWL point (0.0674606,5)
V13: Removing PWL point (0.0675531,0)
V13: Removing PWL point (0.0676011,5)
V13: Removing PWL point (0.0676971,0)
V13: Removing PWL point (0.0677417,5)
V13: Removing PWL point (0.0678411,0)
V13: Removing PWL point (0.0678823,5)
V13: Removing PWL point (0.0679851,0)
V13: Removing PWL point (0.0680229,5)
V13: Removing PWL point (0.0681326,0)
V13: Removing PWL point (0.0681634,5)
V13: Removing PWL point (0.0682766,0)
V13: Removing PWL point (0.0683074,5)
V13: Removing PWL point (0.0684206,0)
V13: Removing PWL point (0.068448,5)
V13: Removing PWL point (0.0685646,0)
V13: Removing PWL point (0.0685886,5)
V13: Removing PWL point (0.0687051,0)
V13: Removing PWL point (0.0687326,5)
V13: Removing PWL point (0.0688491,0)
V13: Removing PWL point (0.0688766,5)
V13: Removing PWL point (0.0689931,0)
V13: Removing PWL point (0.0690171,5)
V13: Removing PWL point (0.0691371,0)
V13: Removing PWL point (0.0691611,5)
V13: Removing PWL point (0.0692777,0)
V13: Removing PWL point (0.0693017,5)
V13: Removing PWL point (0.0694217,0)
V13: Removing PWL point (0.0694457,5)
V13: Removing PWL point (0.0695657,0)
V13: Removing PWL point (0.0695863,5)
V13: Removing PWL point (0.0697097,0)
V13: Removing PWL point (0.0697303,5)
V13: Removing PWL point (0.0698503,0)
V13: Removing PWL point (0.0698743,5)
V13: Removing PWL point (0.0699943,0)
V13: Removing PWL point (0.0700149,5)
V13: Removing PWL point (0.0701383,0)
V13: Removing PWL point (0.0701589,5)
V13: Removing PWL point (0.0702789,0)
V13: Removing PWL point (0.0703029,5)
V13: Removing PWL point (0.0704229,0)
V13: Removing PWL point (0.0704434,5)
V13: Removing PWL point (0.0705669,0)
V13: Removing PWL point (0.0705874,5)
V13: Removing PWL point (0.0707074,0)
V13: Removing PWL point (0.0707314,5)
V13: Removing PWL point (0.0708514,0)
V13: Removing PWL point (0.0708754,5)
V13: Removing PWL point (0.070992,0)
V13: Removing PWL point (0.071016,5)
V13: Removing PWL point (0.071136,0)
V13: Removing PWL point (0.07116,5)
V13: Removing PWL point (0.07128,0)
V13: Removing PWL point (0.071304,5)
V13: Removing PWL point (0.0714206,0)
V13: Removing PWL point (0.071448,5)
V13: Removing PWL point (0.0715646,0)
V13: Removing PWL point (0.071592,5)
V13: Removing PWL point (0.0717051,0)
V13: Removing PWL point (0.0717326,5)
V13: Removing PWL point (0.0718491,0)
V13: Removing PWL point (0.0718766,5)
V13: Removing PWL point (0.0719931,0)
V13: Removing PWL point (0.0720171,5)
V13: Removing PWL point (0.0721337,0)
V13: Removing PWL point (0.0721611,5)
V13: Removing PWL point (0.0722777,0)
V13: Removing PWL point (0.0723017,5)
V13: Removing PWL point (0.0724217,0)
V13: Removing PWL point (0.0724457,5)
V13: Removing PWL point (0.0725657,0)
V13: Removing PWL point (0.0725897,5)
V13: Removing PWL point (0.0727063,0)
V13: Removing PWL point (0.0727303,5)
V13: Removing PWL point (0.0728503,0)
V13: Removing PWL point (0.0728743,5)
V13: Removing PWL point (0.0729943,0)
V13: Removing PWL point (0.0730149,5)
V13: Removing PWL point (0.0731383,0)
V13: Removing PWL point (0.0731589,5)
V13: Removing PWL point (0.0732789,0)
V13: Removing PWL point (0.0733029,5)
V13: Removing PWL point (0.0734229,0)
V13: Removing PWL point (0.0734434,5)
V13: Removing PWL point (0.0735669,0)
V13: Removing PWL point (0.0735874,5)
V13: Removing PWL point (0.0737074,0)
V13: Removing PWL point (0.0737314,5)
V13: Removing PWL point (0.0738514,0)
V13: Removing PWL point (0.073872,5)
V13: Removing PWL point (0.0739954,0)
V13: Removing PWL point (0.074016,5)
V13: Removing PWL point (0.074136,0)
V13: Removing PWL point (0.07416,5)
V13: Removing PWL point (0.07428,0)
V13: Removing PWL point (0.074304,5)
V13: Removing PWL point (0.0744206,0)
V13: Removing PWL point (0.0744446,5)
V13: Removing PWL point (0.0745646,0)
V13: Removing PWL point (0.0745886,5)
V13: Removing PWL point (0.0747051,0)
V13: Removing PWL point (0.0747326,5)
V13: Removing PWL point (0.0748491,0)
V13: Removing PWL point (0.0748766,5)
V13: Removing PWL point (0.0749897,0)
V13: Removing PWL point (0.0750206,5)
V13: Removing PWL point (0.0751337,0)
V13: Removing PWL point (0.0751611,5)
V13: Removing PWL point (0.0752743,0)
V13: Removing PWL point (0.0753086,5)
V13: Removing PWL point (0.0754149,0)
V13: Removing PWL point (0.0754526,5)
V13: Removing PWL point (0.0755554,0)
V13: Removing PWL point (0.0755966,5)
V13: Removing PWL point (0.0756994,0)
V13: Removing PWL point (0.0757406,5)
V13: Removing PWL point (0.07584,0)
V13: Removing PWL point (0.0758846,5)
V13: Removing PWL point (0.0759806,0)
V13: Removing PWL point (0.076032,5)
V13: Removing PWL point (0.0761211,0)
V13: Removing PWL point (0.076176,5)
V13: Removing PWL point (0.0762617,0)
V13: Removing PWL point (0.07632,5)
V13: Removing PWL point (0.0764023,0)
V13: Removing PWL point (0.076464,5)
V13: Removing PWL point (0.0765429,0)
V13: Removing PWL point (0.076608,5)
V13: Removing PWL point (0.0766834,0)
V13: Removing PWL point (0.0767554,5)
V13: Removing PWL point (0.076824,0)
V13: Removing PWL point (0.0768994,5)
V13: Removing PWL point (0.076968,0)
V13: Removing PWL point (0.0770469,5)
V13: Removing PWL point (0.0771086,0)
V13: Removing PWL point (0.0771909,5)
V13: Removing PWL point (0.0772491,0)
V13: Removing PWL point (0.0773349,5)
V13: Removing PWL point (0.0773897,0)
V13: Removing PWL point (0.0774789,5)
V13: Removing PWL point (0.0775303,0)
V13: Removing PWL point (0.0776263,5)
V13: Removing PWL point (0.0776709,0)
V13: Removing PWL point (0.0777703,5)
V13: Removing PWL point (0.0778114,0)
V13: Removing PWL point (0.0779143,5)
V13: Removing PWL point (0.077952,0)
V13: Removing PWL point (0.0780583,5)
V13: Removing PWL point (0.0780926,0)
V13: Removing PWL point (0.0782023,5)
V13: Removing PWL point (0.0782366,0)
V13: Removing PWL point (0.0783497,5)
V13: Removing PWL point (0.0783771,0)
V13: Removing PWL point (0.0784903,5)
V13: Removing PWL point (0.0785177,0)
V13: Removing PWL point (0.0786343,5)
V13: Removing PWL point (0.0786617,0)
V13: Removing PWL point (0.0787783,5)
V13: Removing PWL point (0.0788023,0)
V13: Removing PWL point (0.0789223,5)
V13: Removing PWL point (0.0789463,0)
V13: Removing PWL point (0.0790629,5)
V13: Removing PWL point (0.0790903,0)
V13: Removing PWL point (0.0792069,5)
V13: Removing PWL point (0.0792309,0)
V13: Removing PWL point (0.0793509,5)
V13: Removing PWL point (0.0793749,0)
V13: Removing PWL point (0.0794949,5)
V13: Removing PWL point (0.0795154,0)
V13: Removing PWL point (0.0796354,5)
V13: Removing PWL point (0.0796594,0)
V13: Removing PWL point (0.0797794,5)
V13: Removing PWL point (0.0798034,0)
V13: Removing PWL point (0.0799234,5)
V13: Removing PWL point (0.079944,0)
V13: Removing PWL point (0.080064,5)
V13: Removing PWL point (0.080088,0)
V13: Removing PWL point (0.080208,5)
V13: Removing PWL point (0.080232,0)
V13: Removing PWL point (0.080352,5)
V13: Removing PWL point (0.0803726,0)
V13: Removing PWL point (0.0804926,5)
V13: Removing PWL point (0.0805166,0)
V13: Removing PWL point (0.0806366,5)
V13: Removing PWL point (0.0806606,0)
V13: Removing PWL point (0.0807806,5)
V13: Removing PWL point (0.0808011,0)
V13: Removing PWL point (0.0809211,5)
V13: Removing PWL point (0.0809451,0)
V13: Removing PWL point (0.0810651,5)
V13: Removing PWL point (0.0810891,0)
V13: Removing PWL point (0.0812057,5)
V13: Removing PWL point (0.0812331,0)
V13: Removing PWL point (0.0813497,5)
V13: Removing PWL point (0.0813771,0)
V13: Removing PWL point (0.0814903,5)
V13: Removing PWL point (0.0815177,0)
V13: Removing PWL point (0.0816343,5)
V13: Removing PWL point (0.0816617,0)
V13: Removing PWL point (0.0817783,5)
V13: Removing PWL point (0.0818057,0)
V13: Removing PWL point (0.0819189,5)
V13: Removing PWL point (0.0819463,0)
V13: Removing PWL point (0.0820629,5)
V13: Removing PWL point (0.0820903,0)
V13: Removing PWL point (0.0822069,5)
V13: Removing PWL point (0.0822309,0)
V13: Removing PWL point (0.0823509,5)
V13: Removing PWL point (0.0823749,0)
V13: Removing PWL point (0.0824914,5)
V13: Removing PWL point (0.0825154,0)
V13: Removing PWL point (0.0826354,5)
V13: Removing PWL point (0.0826594,0)
V13: Removing PWL point (0.0827794,5)
V13: Removing PWL point (0.0828034,0)
V13: Removing PWL point (0.0829234,5)
V13: Removing PWL point (0.082944,0)
V13: Removing PWL point (0.083064,5)
V13: Removing PWL point (0.083088,0)
V13: Removing PWL point (0.083208,5)
V13: Removing PWL point (0.083232,0)
V13: Removing PWL point (0.083352,5)
V13: Removing PWL point (0.0833726,0)
V13: Removing PWL point (0.0834926,5)
V13: Removing PWL point (0.0835166,0)
V13: Removing PWL point (0.0836366,5)
V13: Removing PWL point (0.0836606,0)
V13: Removing PWL point (0.0837806,5)
V13: Removing PWL point (0.0838011,0)
V13: Removing PWL point (0.0839211,5)
V13: Removing PWL point (0.0839451,0)
V13: Removing PWL point (0.0840651,5)
V13: Removing PWL point (0.0840891,0)
V13: Removing PWL point (0.0842091,5)
V13: Removing PWL point (0.0842297,0)
V13: Removing PWL point (0.0843497,5)
V13: Removing PWL point (0.0843737,0)
V13: Removing PWL point (0.0844937,5)
V13: Removing PWL point (0.0845177,0)
V13: Removing PWL point (0.0846343,5)
V13: Removing PWL point (0.0846617,0)
V13: Removing PWL point (0.0847783,5)
V13: Removing PWL point (0.0848023,0)
V13: Removing PWL point (0.0849189,5)
V13: Removing PWL point (0.0849463,0)
V13: Removing PWL point (0.0850629,5)
V13: Removing PWL point (0.0850903,0)
V13: Removing PWL point (0.0852034,5)
V13: Removing PWL point (0.0852343,0)
V13: Removing PWL point (0.085344,5)
V13: Removing PWL point (0.0853783,0)
V13: Removing PWL point (0.0854846,5)
V13: Removing PWL point (0.0855257,0)
V13: Removing PWL point (0.0856286,5)
V13: Removing PWL point (0.0856697,0)
V13: Removing PWL point (0.0857691,5)
V13: Removing PWL point (0.0858137,0)
V13: Removing PWL point (0.0859097,5)
V13: Removing PWL point (0.0859577,0)
V13: Removing PWL point (0.0860503,5)
V13: Removing PWL point (0.0861017,0)
V13: Removing PWL point (0.0861909,5)
V13: Removing PWL point (0.0862491,0)
V13: Removing PWL point (0.0863314,5)
V13: Removing PWL point (0.0863931,0)
V13: Removing PWL point (0.086472,5)
V13: Removing PWL point (0.0865371,0)
V13: Removing PWL point (0.0866126,5)
V13: Removing PWL point (0.0866811,0)
V13: Removing PWL point (0.0867531,5)
V13: Removing PWL point (0.0868286,0)
V13: Removing PWL point (0.0868971,5)
V13: Removing PWL point (0.0869726,0)
V13: Removing PWL point (0.0870377,5)
V13: Removing PWL point (0.0871166,0)
V13: Removing PWL point (0.0871783,5)
V13: Removing PWL point (0.0872606,0)
V13: Removing PWL point (0.0873189,5)
V13: Removing PWL point (0.0874046,0)
V13: Removing PWL point (0.0874594,5)
V13: Removing PWL point (0.087552,0)
V13: Removing PWL point (0.0876,5)
V13: Removing PWL point (0.087696,0)
V13: Removing PWL point (0.0877406,5)
V13: Removing PWL point (0.08784,0)
V13: Removing PWL point (0.0878811,5)
V13: Removing PWL point (0.087984,0)
V13: Removing PWL point (0.0880251,5)
V13: Removing PWL point (0.088128,0)
V13: Removing PWL point (0.0881657,5)
V13: Removing PWL point (0.0882754,0)
V13: Removing PWL point (0.0883063,5)
V13: Removing PWL point (0.0884194,0)
V13: Removing PWL point (0.0884469,5)
V13: Removing PWL point (0.0885634,0)
V13: Removing PWL point (0.0885909,5)
V13: Removing PWL point (0.0887074,0)
V13: Removing PWL point (0.0887314,5)
V13: Removing PWL point (0.088848,0)
V13: Removing PWL point (0.0888754,5)
V13: Removing PWL point (0.088992,0)
V13: Removing PWL point (0.089016,5)
V13: Removing PWL point (0.089136,0)
V13: Removing PWL point (0.08916,5)
V13: Removing PWL point (0.08928,0)
V13: Removing PWL point (0.089304,5)
V13: Removing PWL point (0.0894206,0)
V13: Removing PWL point (0.0894446,5)
V13: Removing PWL point (0.0895646,0)
V13: Removing PWL point (0.0895886,5)
V13: Removing PWL point (0.0897086,0)
V13: Removing PWL point (0.0897291,5)
V13: Removing PWL point (0.0898526,0)
V13: Removing PWL point (0.0898731,5)
V13: Removing PWL point (0.0899931,0)
V13: Removing PWL point (0.0900171,5)
V13: Removing PWL point (0.0901371,0)
V13: Removing PWL point (0.0901577,5)
V13: Removing PWL point (0.0902811,0)
V13: Removing PWL point (0.0903017,5)
V13: Removing PWL point (0.0904217,0)
V13: Removing PWL point (0.0904457,5)
V13: Removing PWL point (0.0905657,0)
V13: Removing PWL point (0.0905863,5)
V13: Removing PWL point (0.0907097,0)
V13: Removing PWL point (0.0907303,5)
V13: Removing PWL point (0.0908503,0)
V13: Removing PWL point (0.0908743,5)
V13: Removing PWL point (0.0909943,0)
V13: Removing PWL point (0.0910183,5)
V13: Removing PWL point (0.0911349,0)
V13: Removing PWL point (0.0911623,5)
V13: Removing PWL point (0.0912789,0)
V13: Removing PWL point (0.0913029,5)
V13: Removing PWL point (0.0914194,0)
V13: Removing PWL point (0.0914469,5)
V13: Removing PWL point (0.0915634,0)
V13: Removing PWL point (0.0915909,5)
V13: Removing PWL point (0.091704,0)
V13: Removing PWL point (0.0917349,5)
V13: Removing PWL point (0.091848,0)
V13: Removing PWL point (0.0918754,5)
V13: Removing PWL point (0.091992,0)
V13: Removing PWL point (0.0920194,5)
V13: Removing PWL point (0.092136,0)
V13: Removing PWL point (0.09216,5)
V13: Removing PWL point (0.0922766,0)
V13: Removing PWL point (0.092304,5)
V13: Removing PWL point (0.0924206,0)
V13: Removing PWL point (0.0924446,5)
V13: Removing PWL point (0.0925646,0)
V13: Removing PWL point (0.0925886,5)
V13: Removing PWL point (0.0927086,0)
V13: Removing PWL point (0.0927326,5)
V13: Removing PWL point (0.0928526,0)
V13: Removing PWL point (0.0928731,5)
V13: Removing PWL point (0.0929931,0)
V13: Removing PWL point (0.0930171,5)
V13: Removing PWL point (0.0931371,0)
V13: Removing PWL point (0.0931577,5)
V13: Removing PWL point (0.0932811,0)
V13: Removing PWL point (0.0933017,5)
V13: Removing PWL point (0.0934217,0)
V13: Removing PWL point (0.0934457,5)
V13: Removing PWL point (0.0935657,0)
V13: Removing PWL point (0.0935863,5)
V13: Removing PWL point (0.0937097,0)
V13: Removing PWL point (0.0937303,5)
V13: Removing PWL point (0.0938503,0)
V13: Removing PWL point (0.0938743,5)
V13: Removing PWL point (0.0939943,0)
V13: Removing PWL point (0.0940149,5)
V13: Removing PWL point (0.0941349,0)
V13: Removing PWL point (0.0941589,5)
V13: Removing PWL point (0.0942789,0)
V13: Removing PWL point (0.0943029,5)
V13: Removing PWL point (0.0944229,0)
V13: Removing PWL point (0.0944469,5)
V13: Removing PWL point (0.0945634,0)
V13: Removing PWL point (0.0945874,5)
V13: Removing PWL point (0.0947074,0)
V13: Removing PWL point (0.0947314,5)
V13: Removing PWL point (0.094848,0)
V13: Removing PWL point (0.0948754,5)
V13: Removing PWL point (0.094992,0)
V13: Removing PWL point (0.0950194,5)
V13: Removing PWL point (0.0951326,0)
V13: Removing PWL point (0.0951634,5)
V13: Removing PWL point (0.0952731,0)
V13: Removing PWL point (0.0953074,5)
V13: Removing PWL point (0.0954171,0)
V13: Removing PWL point (0.0954514,5)
V13: Removing PWL point (0.0955577,0)
V13: Removing PWL point (0.0955954,5)
V13: Removing PWL point (0.0956983,0)
V13: Removing PWL point (0.0957429,5)
V13: Removing PWL point (0.0958389,0)
V13: Removing PWL point (0.0958869,5)
V13: Removing PWL point (0.0959794,0)
V13: Removing PWL point (0.0960309,5)
V13: Removing PWL point (0.09612,0)
V13: Removing PWL point (0.0961749,5)
V13: Removing PWL point (0.0962606,0)
V13: Removing PWL point (0.0963189,5)
V13: Removing PWL point (0.0964011,0)
V13: Removing PWL point (0.0964663,5)
V13: Removing PWL point (0.0965417,0)
V13: Removing PWL point (0.0966103,5)
V13: Removing PWL point (0.0966857,0)
V13: Removing PWL point (0.0967543,5)
V13: Removing PWL point (0.0968263,0)
V13: Removing PWL point (0.0968983,5)
V13: Removing PWL point (0.0969669,0)
V13: Removing PWL point (0.0970457,5)
V13: Removing PWL point (0.0971074,0)
V13: Removing PWL point (0.0971897,5)
V13: Removing PWL point (0.097248,0)
V13: Removing PWL point (0.0973337,5)
V13: Removing PWL point (0.0973886,0)
V13: Removing PWL point (0.0974777,5)
V13: Removing PWL point (0.0975291,0)
V13: Removing PWL point (0.0976217,5)
V13: Removing PWL point (0.0976697,0)
V13: Removing PWL point (0.0977691,5)
V13: Removing PWL point (0.0978103,0)
V13: Removing PWL point (0.0979131,5)
V13: Removing PWL point (0.0979543,0)
V13: Removing PWL point (0.0980571,5)
V13: Removing PWL point (0.0980949,0)
V13: Removing PWL point (0.0982011,5)
V13: Removing PWL point (0.0982354,0)
V13: Removing PWL point (0.0983451,5)
V13: Removing PWL point (0.098376,0)
V13: Removing PWL point (0.0984926,5)
V13: Removing PWL point (0.09852,0)
V13: Removing PWL point (0.0986331,5)
V13: Removing PWL point (0.0986606,0)
V13: Removing PWL point (0.0987771,5)
V13: Removing PWL point (0.0988046,0)
V13: Removing PWL point (0.0989211,5)
V13: Removing PWL point (0.0989451,0)
V13: Removing PWL point (0.0990651,5)
V13: Removing PWL point (0.0990891,0)
V13: Removing PWL point (0.0992057,5)
V13: Removing PWL point (0.0992297,0)
V13: Removing PWL point (0.0993497,5)
V13: Removing PWL point (0.0993737,0)
V13: Removing PWL point (0.0994937,5)
V13: Removing PWL point (0.0995177,0)
V13: Removing PWL point (0.0996377,5)
V13: Removing PWL point (0.0996583,0)
V13: Removing PWL point (0.0997783,5)
V13: Removing PWL point (0.0998023,0)
V13: Removing PWL point (0.0999223,5)
V13: Removing PWL point (0.0999463,0)
V13: Removing PWL point (0.100066,5)
V13: Removing PWL point (0.100087,0)
V13: Removing PWL point (0.100207,5)
V13: Removing PWL point (0.100231,0)
V13: Removing PWL point (0.100351,5)
V13: Removing PWL point (0.100375,0)
V13: Removing PWL point (0.100495,5)
V13: Removing PWL point (0.100515,0)
V13: Removing PWL point (0.100635,5)
V13: Removing PWL point (0.100659,0)
V13: Removing PWL point (0.100779,5)
V13: Removing PWL point (0.100803,0)
V13: Removing PWL point (0.100923,5)
V13: Removing PWL point (0.100944,0)
V13: Removing PWL point (0.101064,5)
V13: Removing PWL point (0.101088,0)
V13: Removing PWL point (0.101208,5)
V13: Removing PWL point (0.101232,0)
V13: Removing PWL point (0.101349,5)
V13: Removing PWL point (0.101376,0)
V13: Removing PWL point (0.101493,5)
V13: Removing PWL point (0.10152,0)
V13: Removing PWL point (0.101633,5)
V13: Removing PWL point (0.101661,0)
V13: Removing PWL point (0.101777,5)
V13: Removing PWL point (0.101805,0)
V13: Removing PWL point (0.101921,5)
V13: Removing PWL point (0.101949,0)
V13: Removing PWL point (0.102062,5)
V13: Removing PWL point (0.102089,0)
V13: Removing PWL point (0.102206,5)
V13: Removing PWL point (0.102233,0)
V13: Removing PWL point (0.10235,5)
V13: Removing PWL point (0.102374,0)
V13: Removing PWL point (0.102494,5)
V13: Removing PWL point (0.102518,0)
V13: Removing PWL point (0.102638,5)
V13: Removing PWL point (0.102658,0)
V13: Removing PWL point (0.102778,5)
V13: Removing PWL point (0.102802,0)
V13: Removing PWL point (0.102922,5)
V13: Removing PWL point (0.102946,0)
V13: Removing PWL point (0.103066,5)
V13: Removing PWL point (0.103087,0)
V13: Removing PWL point (0.103207,5)
V13: Removing PWL point (0.103231,0)
V13: Removing PWL point (0.103351,5)
V13: Removing PWL point (0.103375,0)
V13: Removing PWL point (0.103495,5)
V13: Removing PWL point (0.103515,0)
V13: Removing PWL point (0.103635,5)
V13: Removing PWL point (0.103659,0)
V13: Removing PWL point (0.103779,5)
V13: Removing PWL point (0.103803,0)
V13: Removing PWL point (0.103923,5)
V13: Removing PWL point (0.103944,0)
V13: Removing PWL point (0.104064,5)
V13: Removing PWL point (0.104088,0)
V13: Removing PWL point (0.104208,5)
V13: Removing PWL point (0.104232,0)
V13: Removing PWL point (0.104349,5)
V13: Removing PWL point (0.104376,0)
V13: Removing PWL point (0.104493,5)
V13: Removing PWL point (0.104517,0)
V13: Removing PWL point (0.104637,5)
V13: Removing PWL point (0.104661,0)
V13: Removing PWL point (0.104777,5)
V13: Removing PWL point (0.104805,0)
V13: Removing PWL point (0.104921,5)
V13: Removing PWL point (0.104949,0)
V13: Removing PWL point (0.105062,5)
V13: Removing PWL point (0.105089,0)
V13: Removing PWL point (0.105202,5)
V13: Removing PWL point (0.105237,0)
V13: Removing PWL point (0.105346,5)
V13: Removing PWL point (0.105381,0)
V13: Removing PWL point (0.105487,5)
V13: Removing PWL point (0.105525,0)
V13: Removing PWL point (0.105627,5)
V13: Removing PWL point (0.105669,0)
V13: Removing PWL point (0.105768,5)
V13: Removing PWL point (0.105813,0)
V13: Removing PWL point (0.105909,5)
V13: Removing PWL point (0.10596,0)
V13: Removing PWL point (0.106049,5)
V13: Removing PWL point (0.106104,0)
V13: Removing PWL point (0.10619,5)
V13: Removing PWL point (0.106248,0)
V13: Removing PWL point (0.10633,5)
V13: Removing PWL point (0.106392,0)
V13: Removing PWL point (0.106474,5)
V13: Removing PWL point (0.106536,0)
V13: Removing PWL point (0.106615,5)
V13: Removing PWL point (0.106683,0)
V13: Removing PWL point (0.106755,5)
V13: Removing PWL point (0.106827,0)
V13: Removing PWL point (0.106896,5)
V13: Removing PWL point (0.106971,0)
V13: Removing PWL point (0.107037,5)
V13: Removing PWL point (0.107115,0)
V13: Removing PWL point (0.107177,5)
V13: Removing PWL point (0.107263,0)
V13: Removing PWL point (0.107318,5)
V13: Removing PWL point (0.107407,0)
V13: Removing PWL point (0.107458,5)
V13: Removing PWL point (0.107551,0)
V13: Removing PWL point (0.107599,5)
V13: Removing PWL point (0.107695,0)
V13: Removing PWL point (0.107743,5)
V13: Removing PWL point (0.107839,0)
V13: Removing PWL point (0.107883,5)
V13: Removing PWL point (0.107986,0)
V13: Removing PWL point (0.108024,5)
V13: Removing PWL point (0.10813,0)
V13: Removing PWL point (0.108165,5)
V13: Removing PWL point (0.108274,0)
V13: Removing PWL point (0.108305,5)
V13: Removing PWL point (0.108418,0)
V13: Removing PWL point (0.108449,5)
V13: Removing PWL point (0.108562,0)
V13: Removing PWL point (0.10859,5)
V13: Removing PWL point (0.108706,0)
V13: Removing PWL point (0.108734,5)
V13: Removing PWL point (0.10885,0)
V13: Removing PWL point (0.108874,5)
V13: Removing PWL point (0.108994,0)
V13: Removing PWL point (0.109018,5)
V13: Removing PWL point (0.109135,0)
V13: Removing PWL point (0.109159,5)
V13: Removing PWL point (0.109279,0)
V13: Removing PWL point (0.109303,5)
V13: Removing PWL point (0.109423,0)
V13: Removing PWL point (0.109443,5)
V13: Removing PWL point (0.109567,0)
V13: Removing PWL point (0.109587,5)
V13: Removing PWL point (0.109707,0)
V13: Removing PWL point (0.109731,5)
V13: Removing PWL point (0.109851,0)
V13: Removing PWL point (0.109872,5)
V13: Removing PWL point (0.109995,0)
V13: Removing PWL point (0.110016,5)
V13: Removing PWL point (0.110136,0)
V13: Removing PWL point (0.11016,5)
V13: Removing PWL point (0.11028,0)
V13: Removing PWL point (0.110301,5)
V13: Removing PWL point (0.110424,0)
V13: Removing PWL point (0.110445,5)
V13: Removing PWL point (0.110565,0)
V13: Removing PWL point (0.110589,5)
V13: Removing PWL point (0.110709,0)
V13: Removing PWL point (0.110729,5)
V13: Removing PWL point (0.110849,0)
V13: Removing PWL point (0.110873,5)
V13: Removing PWL point (0.110993,0)
V13: Removing PWL point (0.111017,5)
V13: Removing PWL point (0.111137,0)
V13: Removing PWL point (0.111161,5)
V13: Removing PWL point (0.111278,0)
V13: Removing PWL point (0.111305,5)
V13: Removing PWL point (0.111422,0)
V13: Removing PWL point (0.111446,5)
V13: Removing PWL point (0.111562,0)
V13: Removing PWL point (0.11159,5)
V13: Removing PWL point (0.111706,0)
V13: Removing PWL point (0.111734,5)
V13: Removing PWL point (0.111847,0)
V13: Removing PWL point (0.111878,5)
V13: Removing PWL point (0.111991,0)
V13: Removing PWL point (0.112018,5)
V13: Removing PWL point (0.112135,0)
V13: Removing PWL point (0.112162,5)
V13: Removing PWL point (0.112279,0)
V13: Removing PWL point (0.112303,5)
V13: Removing PWL point (0.112423,0)
V13: Removing PWL point (0.112447,5)
V13: Removing PWL point (0.112563,0)
V13: Removing PWL point (0.112587,5)
V13: Removing PWL point (0.112707,0)
V13: Removing PWL point (0.112731,5)
V13: Removing PWL point (0.112851,0)
V13: Removing PWL point (0.112872,5)
V13: Removing PWL point (0.112995,0)
V13: Removing PWL point (0.113016,5)
V13: Removing PWL point (0.113136,0)
V13: Removing PWL point (0.11316,5)
V13: Removing PWL point (0.11328,0)
V13: Removing PWL point (0.113301,5)
V13: Removing PWL point (0.113424,0)
V13: Removing PWL point (0.113445,5)
V13: Removing PWL point (0.113565,0)
V13: Removing PWL point (0.113589,5)
V13: Removing PWL point (0.113709,0)
V13: Removing PWL point (0.113729,5)
V13: Removing PWL point (0.113853,0)
V13: Removing PWL point (0.113873,5)
V13: Removing PWL point (0.113993,0)
V13: Removing PWL point (0.114017,5)
V13: Removing PWL point (0.114137,0)
V13: Removing PWL point (0.114161,5)
V13: Removing PWL point (0.114278,0)
V13: Removing PWL point (0.114302,5)
V13: Removing PWL point (0.114422,0)
V13: Removing PWL point (0.114446,5)
V13: Removing PWL point (0.114566,0)
V13: Removing PWL point (0.11459,5)
V13: Removing PWL point (0.114706,0)
V13: Removing PWL point (0.114734,5)
V13: Removing PWL point (0.11485,0)
V13: Removing PWL point (0.114874,5)
V13: Removing PWL point (0.114991,0)
V13: Removing PWL point (0.115018,5)
V13: Removing PWL point (0.115131,0)
V13: Removing PWL point (0.115162,5)
V13: Removing PWL point (0.115275,0)
V13: Removing PWL point (0.115306,5)
V13: Removing PWL point (0.115416,0)
V13: Removing PWL point (0.115454,5)
V13: Removing PWL point (0.115557,0)
V13: Removing PWL point (0.115598,5)
V13: Removing PWL point (0.115697,0)
V13: Removing PWL point (0.115742,5)
V13: Removing PWL point (0.115838,0)
V13: Removing PWL point (0.115886,5)
V13: Removing PWL point (0.115978,0)
V13: Removing PWL point (0.11603,5)
V13: Removing PWL point (0.116119,0)
V13: Removing PWL point (0.116177,5)
V13: Removing PWL point (0.116263,0)
V13: Removing PWL point (0.116321,5)
V13: Removing PWL point (0.116403,0)
V13: Removing PWL point (0.116465,5)
V13: Removing PWL point (0.116544,0)
V13: Removing PWL point (0.116609,5)
V13: Removing PWL point (0.116685,0)
V13: Removing PWL point (0.116753,5)
V13: Removing PWL point (0.116825,0)
V13: Removing PWL point (0.116901,5)
V13: Removing PWL point (0.116966,0)
V13: Removing PWL point (0.117045,5)
V13: Removing PWL point (0.117106,0)
V13: Removing PWL point (0.117189,5)
V13: Removing PWL point (0.117247,0)
V13: Removing PWL point (0.117333,5)
V13: Removing PWL point (0.117387,0)
V13: Removing PWL point (0.11748,5)
V13: Removing PWL point (0.117528,0)
V13: Removing PWL point (0.117624,5)
V13: Removing PWL point (0.117672,0)
V13: Removing PWL point (0.117768,5)
V13: Removing PWL point (0.117813,0)
V13: Removing PWL point (0.117912,5)
V13: Removing PWL point (0.117953,0)
V13: Removing PWL point (0.118056,5)
V13: Removing PWL point (0.118094,0)
V13: Removing PWL point (0.118203,5)
V13: Removing PWL point (0.118234,0)
V13: Removing PWL point (0.118347,5)
V13: Removing PWL point (0.118375,0)
V13: Removing PWL point (0.118491,5)
V13: Removing PWL point (0.118519,0)
V13: Removing PWL point (0.118635,5)
V13: Removing PWL point (0.118663,0)
V13: Removing PWL point (0.118776,5)
V13: Removing PWL point (0.118803,0)
V13: Removing PWL point (0.11892,5)
V13: Removing PWL point (0.118947,0)
V13: Removing PWL point (0.119064,5)
V13: Removing PWL point (0.119088,0)
V13: Removing PWL point (0.119208,5)
V13: Removing PWL point (0.119232,0)
V13: Removing PWL point (0.119352,5)
V13: Removing PWL point (0.119373,0)
V13: Removing PWL point (0.119493,5)
V13: Removing PWL point (0.119517,0)
V13: Removing PWL point (0.119637,5)
V13: Removing PWL point (0.119661,0)
V13: Removing PWL point (0.119781,5)
V13: Removing PWL point (0.119801,0)
V13: Removing PWL point (0.119921,5)
V13: Removing PWL point (0.119945,0)
V12: Removing PWL point (3.42857e-006,0)
V12: Removing PWL point (1.71429e-005,5)
V12: Removing PWL point (0.000137143,0)
V12: Removing PWL point (0.000157714,5)
V12: Removing PWL point (0.000281143,0)
V12: Removing PWL point (0.000301714,5)
V12: Removing PWL point (0.000421714,0)
V12: Removing PWL point (0.000445714,5)
V12: Removing PWL point (0.000565714,0)
V12: Removing PWL point (0.000586286,5)
V12: Removing PWL point (0.000709714,0)
V12: Removing PWL point (0.000730286,5)
V12: Removing PWL point (0.000850286,0)
V12: Removing PWL point (0.000874286,5)
V12: Removing PWL point (0.000994286,0)
V12: Removing PWL point (0.00101829,5)
V12: Removing PWL point (0.00113486,0)
V12: Removing PWL point (0.00116229,5)
V12: Removing PWL point (0.00127886,0)
V12: Removing PWL point (0.00130286,5)
V12: Removing PWL point (0.00141943,0)
V12: Removing PWL point (0.00144686,5)
V12: Removing PWL point (0.00156343,0)
V12: Removing PWL point (0.00159086,5)
V12: Removing PWL point (0.001704,0)
V12: Removing PWL point (0.00173486,5)
V12: Removing PWL point (0.001848,0)
V12: Removing PWL point (0.00187886,5)
V12: Removing PWL point (0.00198857,0)
V12: Removing PWL point (0.00202286,5)
V12: Removing PWL point (0.00212914,0)
V12: Removing PWL point (0.00216686,5)
V12: Removing PWL point (0.00226971,0)
V12: Removing PWL point (0.00231429,5)
V12: Removing PWL point (0.00241029,0)
V12: Removing PWL point (0.00245829,5)
V12: Removing PWL point (0.00255429,0)
V12: Removing PWL point (0.00260229,5)
V12: Removing PWL point (0.00269486,0)
V12: Removing PWL point (0.00274629,5)
V12: Removing PWL point (0.00283543,0)
V12: Removing PWL point (0.00289029,5)
V12: Removing PWL point (0.002976,0)
V12: Removing PWL point (0.00303771,5)
V12: Removing PWL point (0.00311657,0)
V12: Removing PWL point (0.00318171,5)
V12: Removing PWL point (0.00325714,0)
V12: Removing PWL point (0.00332571,5)
V12: Removing PWL point (0.00339771,0)
V12: Removing PWL point (0.00346971,5)
V12: Removing PWL point (0.00353829,0)
V12: Removing PWL point (0.00361714,5)
V12: Removing PWL point (0.00367886,0)
V12: Removing PWL point (0.00376114,5)
V12: Removing PWL point (0.00381943,0)
V12: Removing PWL point (0.00390514,5)
V12: Removing PWL point (0.00396343,0)
V12: Removing PWL point (0.00404914,5)
V12: Removing PWL point (0.004104,0)
V12: Removing PWL point (0.00419657,5)
V12: Removing PWL point (0.00424457,0)
V12: Removing PWL point (0.00434057,5)
V12: Removing PWL point (0.00438514,0)
V12: Removing PWL point (0.00448457,5)
V12: Removing PWL point (0.00452571,0)
V12: Removing PWL point (0.00462857,5)
V12: Removing PWL point (0.00466629,0)
V12: Removing PWL point (0.00477257,5)
V12: Removing PWL point (0.00480686,0)
V12: Removing PWL point (0.00491657,5)
V12: Removing PWL point (0.00495086,0)
V12: Removing PWL point (0.005064,5)
V12: Removing PWL point (0.00509143,0)
V12: Removing PWL point (0.00520457,5)
V12: Removing PWL point (0.005232,0)
V12: Removing PWL point (0.00534857,5)
V12: Removing PWL point (0.005376,0)
V12: Removing PWL point (0.00549257,5)
V12: Removing PWL point (0.00551657,0)
V12: Removing PWL point (0.00563657,5)
V12: Removing PWL point (0.00566057,0)
V12: Removing PWL point (0.00578057,5)
V12: Removing PWL point (0.00580114,0)
V12: Removing PWL point (0.00592114,5)
V12: Removing PWL point (0.00594514,0)
V12: Removing PWL point (0.00606514,5)
V12: Removing PWL point (0.00608914,0)
V12: Removing PWL point (0.00620914,5)
V12: Removing PWL point (0.00622971,0)
V12: Removing PWL point (0.00634971,5)
V12: Removing PWL point (0.00637371,0)
V12: Removing PWL point (0.00649371,5)
V12: Removing PWL point (0.00651771,0)
V12: Removing PWL point (0.00663771,5)
V12: Removing PWL point (0.00665829,0)
V12: Removing PWL point (0.00677829,5)
V12: Removing PWL point (0.00680229,0)
V12: Removing PWL point (0.00692229,5)
V12: Removing PWL point (0.00694629,0)
V12: Removing PWL point (0.00706629,5)
V12: Removing PWL point (0.00708686,0)
V12: Removing PWL point (0.00720686,5)
V12: Removing PWL point (0.00723086,0)
V12: Removing PWL point (0.00735086,5)
V12: Removing PWL point (0.00737486,0)
V12: Removing PWL point (0.00749486,5)
V12: Removing PWL point (0.00751543,0)
V12: Removing PWL point (0.00763543,5)
V12: Removing PWL point (0.00765943,0)
V12: Removing PWL point (0.00777943,5)
V12: Removing PWL point (0.00780343,0)
V12: Removing PWL point (0.00792,5)
V12: Removing PWL point (0.00794743,0)
V12: Removing PWL point (0.008064,5)
V12: Removing PWL point (0.00809143,0)
V12: Removing PWL point (0.00820457,5)
V12: Removing PWL point (0.008232,0)
V12: Removing PWL point (0.00834857,5)
V12: Removing PWL point (0.008376,0)
V12: Removing PWL point (0.00849257,5)
V12: Removing PWL point (0.00852,0)
V12: Removing PWL point (0.00863314,5)
V12: Removing PWL point (0.00866057,0)
V12: Removing PWL point (0.00877714,5)
V12: Removing PWL point (0.00880457,0)
V12: Removing PWL point (0.00892114,5)
V12: Removing PWL point (0.00894514,0)
V12: Removing PWL point (0.00906514,5)
V12: Removing PWL point (0.00908914,0)
V12: Removing PWL point (0.00920571,5)
V12: Removing PWL point (0.00922971,0)
V12: Removing PWL point (0.00934971,5)
V12: Removing PWL point (0.00937371,0)
V12: Removing PWL point (0.00949371,5)
V12: Removing PWL point (0.00951771,0)
V12: Removing PWL point (0.00963771,5)
V12: Removing PWL point (0.00965829,0)
V12: Removing PWL point (0.00977829,5)
V12: Removing PWL point (0.00980229,0)
V12: Removing PWL point (0.00992229,5)
V12: Removing PWL point (0.00994629,0)
V12: Removing PWL point (0.0100663,5)
V12: Removing PWL point (0.0100869,0)
V12: Removing PWL point (0.0102069,5)
V12: Removing PWL point (0.0102309,0)
V12: Removing PWL point (0.0103509,5)
V12: Removing PWL point (0.0103749,0)
V12: Removing PWL point (0.0104949,5)
V12: Removing PWL point (0.0105154,0)
V12: Removing PWL point (0.0106354,5)
V12: Removing PWL point (0.0106594,0)
V12: Removing PWL point (0.0107794,5)
V12: Removing PWL point (0.0108034,0)
V12: Removing PWL point (0.0109234,5)
V12: Removing PWL point (0.010944,0)
V12: Removing PWL point (0.011064,5)
V12: Removing PWL point (0.011088,0)
V12: Removing PWL point (0.011208,5)
V12: Removing PWL point (0.011232,0)
V12: Removing PWL point (0.0113486,5)
V12: Removing PWL point (0.011376,0)
V12: Removing PWL point (0.0114926,5)
V12: Removing PWL point (0.01152,0)
V12: Removing PWL point (0.0116331,5)
V12: Removing PWL point (0.0116606,0)
V12: Removing PWL point (0.0117771,5)
V12: Removing PWL point (0.0118046,0)
V12: Removing PWL point (0.0119177,5)
V12: Removing PWL point (0.0119486,0)
V12: Removing PWL point (0.0120583,5)
V12: Removing PWL point (0.0120926,0)
V12: Removing PWL point (0.0121989,5)
V12: Removing PWL point (0.01224,0)
V12: Removing PWL point (0.0123394,5)
V12: Removing PWL point (0.012384,0)
V12: Removing PWL point (0.0124834,5)
V12: Removing PWL point (0.012528,0)
V12: Removing PWL point (0.012624,5)
V12: Removing PWL point (0.012672,0)
V12: Removing PWL point (0.0127646,5)
V12: Removing PWL point (0.0128194,0)
V12: Removing PWL point (0.0129051,5)
V12: Removing PWL point (0.0129634,0)
V12: Removing PWL point (0.0130457,5)
V12: Removing PWL point (0.0131109,0)
V12: Removing PWL point (0.0131863,5)
V12: Removing PWL point (0.0132549,0)
V12: Removing PWL point (0.0133269,5)
V12: Removing PWL point (0.0133989,0)
V12: Removing PWL point (0.0134674,5)
V12: Removing PWL point (0.0135429,0)
V12: Removing PWL point (0.013608,5)
V12: Removing PWL point (0.0136869,0)
V12: Removing PWL point (0.013752,5)
V12: Removing PWL point (0.0138343,0)
V12: Removing PWL point (0.0138926,5)
V12: Removing PWL point (0.0139783,0)
V12: Removing PWL point (0.0140331,5)
V12: Removing PWL point (0.0141223,0)
V12: Removing PWL point (0.0141737,5)
V12: Removing PWL point (0.0142663,0)
V12: Removing PWL point (0.0143143,5)
V12: Removing PWL point (0.0144137,0)
V12: Removing PWL point (0.0144549,5)
V12: Removing PWL point (0.0145577,0)
V12: Removing PWL point (0.0145954,5)
V12: Removing PWL point (0.0147017,0)
V12: Removing PWL point (0.014736,5)
V12: Removing PWL point (0.0148457,0)
V12: Removing PWL point (0.01488,5)
V12: Removing PWL point (0.0149897,0)
V12: Removing PWL point (0.0150206,5)
V12: Removing PWL point (0.0151337,0)
V12: Removing PWL point (0.0151611,5)
V12: Removing PWL point (0.0152777,0)
V12: Removing PWL point (0.0153051,5)
V12: Removing PWL point (0.0154217,0)
V12: Removing PWL point (0.0154457,5)
V12: Removing PWL point (0.0155657,0)
V12: Removing PWL point (0.0155897,5)
V12: Removing PWL point (0.0157063,0)
V12: Removing PWL point (0.0157303,5)
V12: Removing PWL point (0.0158503,0)
V12: Removing PWL point (0.0158743,5)
V12: Removing PWL point (0.0159943,0)
V12: Removing PWL point (0.0160183,5)
V12: Removing PWL point (0.0161383,0)
V12: Removing PWL point (0.0161589,5)
V12: Removing PWL point (0.0162789,0)
V12: Removing PWL point (0.0163029,5)
V12: Removing PWL point (0.0164229,0)
V12: Removing PWL point (0.0164434,5)
V12: Removing PWL point (0.0165669,0)
V12: Removing PWL point (0.0165874,5)
V12: Removing PWL point (0.0167074,0)
V12: Removing PWL point (0.0167314,5)
V12: Removing PWL point (0.0168514,0)
V12: Removing PWL point (0.016872,5)
V12: Removing PWL point (0.0169954,0)
V12: Removing PWL point (0.017016,5)
V12: Removing PWL point (0.017136,0)
V12: Removing PWL point (0.01716,5)
V12: Removing PWL point (0.01728,0)
V12: Removing PWL point (0.017304,5)
V12: Removing PWL point (0.0174206,0)
V12: Removing PWL point (0.0174446,5)
V12: Removing PWL point (0.0175646,0)
V12: Removing PWL point (0.0175886,5)
V12: Removing PWL point (0.0177086,0)
V12: Removing PWL point (0.0177326,5)
V12: Removing PWL point (0.0178491,0)
V12: Removing PWL point (0.0178766,5)
V12: Removing PWL point (0.0179931,0)
V12: Removing PWL point (0.0180171,5)
V12: Removing PWL point (0.0181337,0)
V12: Removing PWL point (0.0181611,5)
V12: Removing PWL point (0.0182777,0)
V12: Removing PWL point (0.0183051,5)
V12: Removing PWL point (0.0184183,0)
V12: Removing PWL point (0.0184491,5)
V12: Removing PWL point (0.0185623,0)
V12: Removing PWL point (0.0185897,5)
V12: Removing PWL point (0.0187063,0)
V12: Removing PWL point (0.0187337,5)
V12: Removing PWL point (0.0188503,0)
V12: Removing PWL point (0.0188743,5)
V12: Removing PWL point (0.0189943,0)
V12: Removing PWL point (0.0190183,5)
V12: Removing PWL point (0.0191349,0)
V12: Removing PWL point (0.0191589,5)
V12: Removing PWL point (0.0192789,0)
V12: Removing PWL point (0.0193029,5)
V12: Removing PWL point (0.0194229,0)
V12: Removing PWL point (0.0194434,5)
V12: Removing PWL point (0.0195669,0)
V12: Removing PWL point (0.0195874,5)
V12: Removing PWL point (0.0197074,0)
V12: Removing PWL point (0.0197314,5)
V12: Removing PWL point (0.0198514,0)
V12: Removing PWL point (0.019872,5)
V12: Removing PWL point (0.0199954,0)
V12: Removing PWL point (0.020016,5)
V12: Removing PWL point (0.020136,0)
V12: Removing PWL point (0.02016,5)
V12: Removing PWL point (0.02028,0)
V12: Removing PWL point (0.0203006,5)
V12: Removing PWL point (0.020424,0)
V12: Removing PWL point (0.0204446,5)
V12: Removing PWL point (0.0205646,0)
V12: Removing PWL point (0.0205886,5)
V12: Removing PWL point (0.0207086,0)
V12: Removing PWL point (0.0207291,5)
V12: Removing PWL point (0.0208491,0)
V12: Removing PWL point (0.0208731,5)
V12: Removing PWL point (0.0209931,0)
V12: Removing PWL point (0.0210171,5)
V12: Removing PWL point (0.0211371,0)
V12: Removing PWL point (0.0211611,5)
V12: Removing PWL point (0.0212777,0)
V12: Removing PWL point (0.0213051,5)
V12: Removing PWL point (0.0214217,0)
V12: Removing PWL point (0.0214457,5)
V12: Removing PWL point (0.0215623,0)
V12: Removing PWL point (0.0215897,5)
V12: Removing PWL point (0.0217063,0)
V12: Removing PWL point (0.0217337,5)
V12: Removing PWL point (0.0218469,0)
V12: Removing PWL point (0.0218777,5)
V12: Removing PWL point (0.0219874,0)
V12: Removing PWL point (0.0220217,5)
V12: Removing PWL point (0.022128,0)
V12: Removing PWL point (0.0221657,5)
V12: Removing PWL point (0.022272,0)
V12: Removing PWL point (0.0223097,5)
V12: Removing PWL point (0.0224126,0)
V12: Removing PWL point (0.0224571,5)
V12: Removing PWL point (0.0225531,0)
V12: Removing PWL point (0.0226011,5)
V12: Removing PWL point (0.0226937,0)
V12: Removing PWL point (0.0227451,5)
V12: Removing PWL point (0.0228343,0)
V12: Removing PWL point (0.0228891,5)
V12: Removing PWL point (0.0229749,0)
V12: Removing PWL point (0.0230366,5)
V12: Removing PWL point (0.0231154,0)
V12: Removing PWL point (0.0231806,5)
V12: Removing PWL point (0.023256,0)
V12: Removing PWL point (0.0233246,5)
V12: Removing PWL point (0.0233966,0)
V12: Removing PWL point (0.0234686,5)
V12: Removing PWL point (0.0235406,0)
V12: Removing PWL point (0.0236126,5)
V12: Removing PWL point (0.0236811,0)
V12: Removing PWL point (0.02376,5)
V12: Removing PWL point (0.0238217,0)
V12: Removing PWL point (0.023904,5)
V12: Removing PWL point (0.0239623,0)
V12: Removing PWL point (0.024048,5)
V12: Removing PWL point (0.0241029,0)
V12: Removing PWL point (0.024192,5)
V12: Removing PWL point (0.0242434,0)
V12: Removing PWL point (0.0243394,5)
V12: Removing PWL point (0.024384,0)
V12: Removing PWL point (0.0244834,5)
V12: Removing PWL point (0.0245246,0)
V12: Removing PWL point (0.0246309,5)
V12: Removing PWL point (0.0246651,0)
V12: Removing PWL point (0.0247749,5)
V12: Removing PWL point (0.0248091,0)
V12: Removing PWL point (0.0249189,5)
V12: Removing PWL point (0.0249497,0)
V12: Removing PWL point (0.0250629,5)
V12: Removing PWL point (0.0250903,0)
V12: Removing PWL point (0.0252069,5)
V12: Removing PWL point (0.0252343,0)
V12: Removing PWL point (0.0253509,5)
V12: Removing PWL point (0.0253749,0)
V12: Removing PWL point (0.0254914,5)
V12: Removing PWL point (0.0255189,0)
V12: Removing PWL point (0.0256354,5)
V12: Removing PWL point (0.0256594,0)
V12: Removing PWL point (0.0257794,5)
V12: Removing PWL point (0.0258034,0)
V12: Removing PWL point (0.0259234,5)
V12: Removing PWL point (0.025944,0)
V12: Removing PWL point (0.026064,5)
V12: Removing PWL point (0.026088,0)
V12: Removing PWL point (0.026208,5)
V12: Removing PWL point (0.026232,0)
V12: Removing PWL point (0.026352,5)
V12: Removing PWL point (0.0263726,0)
V12: Removing PWL point (0.0264926,5)
V12: Removing PWL point (0.0265166,0)
V12: Removing PWL point (0.0266366,5)
V12: Removing PWL point (0.0266606,0)
V12: Removing PWL point (0.0267806,5)
V12: Removing PWL point (0.0268011,0)
V12: Removing PWL point (0.0269211,5)
V12: Removing PWL point (0.0269451,0)
V12: Removing PWL point (0.0270651,5)
V12: Removing PWL point (0.0270891,0)
V12: Removing PWL point (0.0272091,5)
V12: Removing PWL point (0.0272297,0)
V12: Removing PWL point (0.0273497,5)
V12: Removing PWL point (0.0273737,0)
V12: Removing PWL point (0.0274937,5)
V12: Removing PWL point (0.0275177,0)
V12: Removing PWL point (0.0276377,5)
V12: Removing PWL point (0.0276617,0)
V12: Removing PWL point (0.0277783,5)
V12: Removing PWL point (0.0278023,0)
V12: Removing PWL point (0.0279223,5)
V12: Removing PWL point (0.0279463,0)
V12: Removing PWL point (0.0280629,5)
V12: Removing PWL point (0.0280903,0)
V12: Removing PWL point (0.0282069,5)
V12: Removing PWL point (0.0282343,0)
V12: Removing PWL point (0.0283474,5)
V12: Removing PWL point (0.0283749,0)
V12: Removing PWL point (0.0284914,5)
V12: Removing PWL point (0.0285189,0)
V12: Removing PWL point (0.0286354,5)
V12: Removing PWL point (0.0286629,0)
V12: Removing PWL point (0.028776,5)
V12: Removing PWL point (0.0288034,0)
V12: Removing PWL point (0.02892,5)
V12: Removing PWL point (0.0289474,0)
V12: Removing PWL point (0.029064,5)
V12: Removing PWL point (0.029088,0)
V12: Removing PWL point (0.029208,5)
V12: Removing PWL point (0.029232,0)
V12: Removing PWL point (0.029352,5)
V12: Removing PWL point (0.0293726,0)
V12: Removing PWL point (0.0294926,5)
V12: Removing PWL point (0.0295166,0)
V12: Removing PWL point (0.0296366,5)
V12: Removing PWL point (0.0296606,0)
V12: Removing PWL point (0.0297806,5)
V12: Removing PWL point (0.0298011,0)
V12: Removing PWL point (0.0299211,5)
V12: Removing PWL point (0.0299451,0)
V12: Removing PWL point (0.0300651,5)
V12: Removing PWL point (0.0300891,0)
V12: Removing PWL point (0.0302091,5)
V12: Removing PWL point (0.0302297,0)
V12: Removing PWL point (0.0303497,5)
V12: Removing PWL point (0.0303737,0)
V12: Removing PWL point (0.0304937,5)
V12: Removing PWL point (0.0305177,0)
V12: Removing PWL point (0.0306377,5)
V12: Removing PWL point (0.0306583,0)
[...]
V11: Removing PWL point (0.0828514,0)
V11: Removing PWL point (0.082872,5)
V11: Removing PWL point (0.0829954,0)
V11: Removing PWL point (0.083016,5)
V11: Removing PWL point (0.083136,0)
V11: Removing PWL point (0.08316,5)
V11: Removing PWL point (0.08328,0)
V11: Removing PWL point (0.0833006,5)
V11: Removing PWL point (0.083424,0)
V11: Removing PWL point (0.0834446,5)
V11: Removing PWL point (0.0835646,0)
V11: Removing PWL point (0.0835886,5)
V11: Removing PWL point (0.0837086,0)
V11: Removing PWL point (0.0837291,5)
V11: Removing PWL point (0.0838526,0)
V11: Removing PWL point (0.0838731,5)
V11: Removing PWL point (0.0839931,0)
V11: Removing PWL point (0.0840171,5)
V11: Removing PWL point (0.0841371,0)
V11: Removing PWL point (0.0841611,5)
V11: Removing PWL point (0.0842777,0)
V11: Removing PWL point (0.0843017,5)
V11: Removing PWL point (0.0844217,0)
V11: Removing PWL point (0.0844457,5)
V11: Removing PWL point (0.0845623,0)
V11: Removing PWL point (0.0845897,5)
V11: Removing PWL point (0.0847063,0)
V11: Removing PWL point (0.0847337,5)
V11: Removing PWL point (0.0848503,0)
V11: Removing PWL point (0.0848743,5)
V11: Removing PWL point (0.0849909,0)
V11: Removing PWL point (0.0850183,5)
V11: Removing PWL point (0.0851349,0)
V11: Removing PWL point (0.0851623,5)
V11: Removing PWL point (0.0852789,0)
V11: Removing PWL point (0.0853029,5)
V11: Removing PWL point (0.0854194,0)
V11: Removing PWL point (0.0854469,5)
V11: Removing PWL point (0.0855634,0)
V11: Removing PWL point (0.0855874,5)
V11: Removing PWL point (0.0857074,0)
V11: Removing PWL point (0.0857314,5)
V11: Removing PWL point (0.0858514,0)
V11: Removing PWL point (0.0858754,5)
V11: Removing PWL point (0.085992,0)
V11: Removing PWL point (0.086016,5)
V11: Removing PWL point (0.086136,0)
V11: Removing PWL point (0.08616,5)
V11: Removing PWL point (0.08628,0)
V11: Removing PWL point (0.0863006,5)
V11: Removing PWL point (0.086424,0)
V11: Removing PWL point (0.0864446,5)
V11: Removing PWL point (0.0865646,0)
V11: Removing PWL point (0.0865886,5)
V11: Removing PWL point (0.0867086,0)
V11: Removing PWL point (0.0867291,5)
V11: Removing PWL point (0.0868526,0)
V11: Removing PWL point (0.0868731,5)
V11: Removing PWL point (0.0869931,0)
V11: Removing PWL point (0.0870171,5)
V11: Removing PWL point (0.0871371,0)
V11: Removing PWL point (0.0871577,5)
V11: Removing PWL point (0.0872811,0)
V11: Removing PWL point (0.0873017,5)
V11: Removing PWL point (0.0874217,0)
V11: Removing PWL point (0.0874457,5)
V11: Removing PWL point (0.0875657,0)
V11: Removing PWL point (0.0875897,5)
V11: Removing PWL point (0.0877063,0)
V11: Removing PWL point (0.0877303,5)
V11: Removing PWL point (0.0878503,0)
V11: Removing PWL point (0.0878743,5)
V11: Removing PWL point (0.0879909,0)
V11: Removing PWL point (0.0880183,5)
V11: Removing PWL point (0.0881349,0)
V11: Removing PWL point (0.0881623,5)
V11: Removing PWL point (0.0882754,0)
V11: Removing PWL point (0.0883063,5)
V11: Removing PWL point (0.0884194,0)
V11: Removing PWL point (0.0884503,5)
V11: Removing PWL point (0.08856,0)
V11: Removing PWL point (0.0885943,5)
V11: Removing PWL point (0.088704,0)
V11: Removing PWL point (0.0887383,5)
V11: Removing PWL point (0.0888446,0)
V11: Removing PWL point (0.0888823,5)
V11: Removing PWL point (0.0889851,0)
V11: Removing PWL point (0.0890263,5)
V11: Removing PWL point (0.0891257,0)
V11: Removing PWL point (0.0891737,5)
V11: Removing PWL point (0.0892663,0)
V11: Removing PWL point (0.0893177,5)
V11: Removing PWL point (0.0894069,0)
V11: Removing PWL point (0.0894617,5)
V11: Removing PWL point (0.0895474,0)
V11: Removing PWL point (0.0896057,5)
V11: Removing PWL point (0.089688,0)
V11: Removing PWL point (0.0897497,5)
V11: Removing PWL point (0.089832,0)
V11: Removing PWL point (0.0898971,5)
V11: Removing PWL point (0.0899726,0)
V11: Removing PWL point (0.0900411,5)
V11: Removing PWL point (0.0901131,0)
V11: Removing PWL point (0.0901851,5)
V11: Removing PWL point (0.0902537,0)
V11: Removing PWL point (0.0903291,5)
V11: Removing PWL point (0.0903943,0)
V11: Removing PWL point (0.0904766,5)
V11: Removing PWL point (0.0905349,0)
V11: Removing PWL point (0.0906206,5)
V11: Removing PWL point (0.0906754,0)
V11: Removing PWL point (0.0907646,5)
V11: Removing PWL point (0.090816,0)
V11: Removing PWL point (0.0909086,5)
V11: Removing PWL point (0.0909566,0)
V11: Removing PWL point (0.0910526,5)
V11: Removing PWL point (0.0911006,0)
V11: Removing PWL point (0.0912,5)
V11: Removing PWL point (0.0912411,0)
V11: Removing PWL point (0.091344,5)
V11: Removing PWL point (0.0913817,0)
V11: Removing PWL point (0.091488,5)
V11: Removing PWL point (0.0915223,0)
V11: Removing PWL point (0.091632,5)
V11: Removing PWL point (0.0916629,0)
V11: Removing PWL point (0.091776,5)
V11: Removing PWL point (0.0918034,0)
V11: Removing PWL point (0.09192,5)
V11: Removing PWL point (0.0919474,0)
V11: Removing PWL point (0.092064,5)
V11: Removing PWL point (0.092088,0)
V11: Removing PWL point (0.092208,5)
V11: Removing PWL point (0.092232,0)
V11: Removing PWL point (0.0923486,5)
V11: Removing PWL point (0.092376,0)
V11: Removing PWL point (0.0924926,5)
V11: Removing PWL point (0.0925166,0)
V11: Removing PWL point (0.0926366,5)
V11: Removing PWL point (0.0926606,0)
V11: Removing PWL point (0.0927806,5)
V11: Removing PWL point (0.0928011,0)
V11: Removing PWL point (0.0929211,5)
V11: Removing PWL point (0.0929451,0)
V11: Removing PWL point (0.0930651,5)
V11: Removing PWL point (0.0930891,0)
V11: Removing PWL point (0.0932091,5)
V11: Removing PWL point (0.0932297,0)
V11: Removing PWL point (0.0933497,5)
V11: Removing PWL point (0.0933737,0)
V11: Removing PWL point (0.0934937,5)
V11: Removing PWL point (0.0935177,0)
V11: Removing PWL point (0.0936377,5)
V11: Removing PWL point (0.0936583,0)
V11: Removing PWL point (0.0937783,5)
V11: Removing PWL point (0.0938023,0)
V11: Removing PWL point (0.0939223,5)
V11: Removing PWL point (0.0939463,0)
V11: Removing PWL point (0.0940663,5)
V11: Removing PWL point (0.0940869,0)
V11: Removing PWL point (0.0942069,5)
V11: Removing PWL point (0.0942309,0)
V11: Removing PWL point (0.0943509,5)
V11: Removing PWL point (0.0943749,0)
V11: Removing PWL point (0.0944914,5)
V11: Removing PWL point (0.0945189,0)
V11: Removing PWL point (0.0946354,5)
V11: Removing PWL point (0.0946594,0)
V11: Removing PWL point (0.094776,5)
V11: Removing PWL point (0.0948034,0)
V11: Removing PWL point (0.09492,5)
V11: Removing PWL point (0.0949474,0)
V11: Removing PWL point (0.095064,5)
V11: Removing PWL point (0.0950914,0)
V11: Removing PWL point (0.0952046,5)
V11: Removing PWL point (0.095232,0)
V11: Removing PWL point (0.0953486,5)
V11: Removing PWL point (0.095376,0)
V11: Removing PWL point (0.0954926,5)
V11: Removing PWL point (0.0955166,0)
V11: Removing PWL point (0.0956366,5)
V11: Removing PWL point (0.0956606,0)
V11: Removing PWL point (0.0957806,5)
V11: Removing PWL point (0.0958011,0)
V11: Removing PWL point (0.0959211,5)
V11: Removing PWL point (0.0959451,0)
V11: Removing PWL point (0.0960651,5)
V11: Removing PWL point (0.0960891,0)
V11: Removing PWL point (0.0962091,5)
V11: Removing PWL point (0.0962297,0)
V11: Removing PWL point (0.0963497,5)
V11: Removing PWL point (0.0963737,0)
V11: Removing PWL point (0.0964937,5)
V11: Removing PWL point (0.0965177,0)
V11: Removing PWL point (0.0966377,5)
V11: Removing PWL point (0.0966583,0)
V11: Removing PWL point (0.0967783,5)
V11: Removing PWL point (0.0968023,0)
V11: Removing PWL point (0.0969223,5)
V11: Removing PWL point (0.0969463,0)
V11: Removing PWL point (0.0970663,5)
V11: Removing PWL point (0.0970869,0)
V11: Removing PWL point (0.0972069,5)
V11: Removing PWL point (0.0972309,0)
V11: Removing PWL point (0.0973509,5)
V11: Removing PWL point (0.0973749,0)
V11: Removing PWL point (0.0974949,5)
V11: Removing PWL point (0.0975154,0)
V11: Removing PWL point (0.0976354,5)
V11: Removing PWL point (0.0976594,0)
V11: Removing PWL point (0.0977794,5)
V11: Removing PWL point (0.0978034,0)
V11: Removing PWL point (0.09792,5)
V11: Removing PWL point (0.0979474,0)
V11: Removing PWL point (0.098064,5)
V11: Removing PWL point (0.0980914,0)
V11: Removing PWL point (0.0982046,5)
V11: Removing PWL point (0.098232,0)
V11: Removing PWL point (0.0983486,5)
V11: Removing PWL point (0.098376,0)
V11: Removing PWL point (0.0984891,5)
V11: Removing PWL point (0.09852,0)
V11: Removing PWL point (0.0986331,5)
V11: Removing PWL point (0.0986674,0)
V11: Removing PWL point (0.0987737,5)
V11: Removing PWL point (0.0988114,0)
V11: Removing PWL point (0.0989143,5)
V11: Removing PWL point (0.0989554,0)
V11: Removing PWL point (0.0990549,5)
V11: Removing PWL point (0.0990994,0)
V11: Removing PWL point (0.0991954,5)
V11: Removing PWL point (0.0992434,0)
V11: Removing PWL point (0.099336,5)
V11: Removing PWL point (0.0993909,0)
V11: Removing PWL point (0.0994766,5)
V11: Removing PWL point (0.0995349,0)
V11: Removing PWL point (0.0996206,5)
V11: Removing PWL point (0.0996789,0)
V11: Removing PWL point (0.0997611,5)
V11: Removing PWL point (0.0998229,0)
V11: Removing PWL point (0.0999017,5)
V11: Removing PWL point (0.0999669,0)
V11: Removing PWL point (0.100042,5)
V11: Removing PWL point (0.100114,0)
V11: Removing PWL point (0.100183,5)
V11: Removing PWL point (0.100258,0)
V11: Removing PWL point (0.100323,5)
V11: Removing PWL point (0.100402,0)
V11: Removing PWL point (0.100464,5)
V11: Removing PWL point (0.100546,0)
V11: Removing PWL point (0.100605,5)
V11: Removing PWL point (0.100694,0)
V11: Removing PWL point (0.100745,5)
V11: Removing PWL point (0.100838,0)
V11: Removing PWL point (0.100886,5)
V11: Removing PWL point (0.100982,0)
V11: Removing PWL point (0.10103,5)
V11: Removing PWL point (0.101126,0)
V11: Removing PWL point (0.10117,5)
V11: Removing PWL point (0.10127,0)
V11: Removing PWL point (0.101311,5)
V11: Removing PWL point (0.101417,0)
V11: Removing PWL point (0.101451,5)
V11: Removing PWL point (0.101561,0)
V11: Removing PWL point (0.101592,5)
V11: Removing PWL point (0.101705,0)
V11: Removing PWL point (0.101733,5)
V11: Removing PWL point (0.101849,0)
V11: Removing PWL point (0.101877,5)
V11: Removing PWL point (0.101993,0)
V11: Removing PWL point (0.102017,5)
V11: Removing PWL point (0.102134,0)
V11: Removing PWL point (0.102161,5)
V11: Removing PWL point (0.102278,0)
V11: Removing PWL point (0.102302,5)
V11: Removing PWL point (0.102422,0)
V11: Removing PWL point (0.102446,5)
V11: Removing PWL point (0.102566,0)
V11: Removing PWL point (0.10259,5)
V11: Removing PWL point (0.102706,0)
V11: Removing PWL point (0.10273,5)
V11: Removing PWL point (0.10285,0)
V11: Removing PWL point (0.102874,5)
V11: Removing PWL point (0.102994,0)
V11: Removing PWL point (0.103015,5)
V11: Removing PWL point (0.103138,0)
V11: Removing PWL point (0.103159,5)
V11: Removing PWL point (0.103279,0)
V11: Removing PWL point (0.103303,5)
V11: Removing PWL point (0.103423,0)
V11: Removing PWL point (0.103443,5)
V11: Removing PWL point (0.103567,0)
V11: Removing PWL point (0.103587,5)
V11: Removing PWL point (0.103707,0)
V11: Removing PWL point (0.103731,5)
V11: Removing PWL point (0.103851,0)
V11: Removing PWL point (0.103872,5)
V11: Removing PWL point (0.103992,0)
V11: Removing PWL point (0.104016,5)
V11: Removing PWL point (0.104136,0)
V11: Removing PWL point (0.10416,5)
V11: Removing PWL point (0.10428,0)
V11: Removing PWL point (0.104304,5)
V11: Removing PWL point (0.104421,0)
V11: Removing PWL point (0.104445,5)
V11: Removing PWL point (0.104565,0)
V11: Removing PWL point (0.104589,5)
V11: Removing PWL point (0.104705,0)
V11: Removing PWL point (0.104733,5)
V11: Removing PWL point (0.104849,0)
V11: Removing PWL point (0.104877,5)
V11: Removing PWL point (0.10499,0)
V11: Removing PWL point (0.105021,5)
V11: Removing PWL point (0.105134,0)
V11: Removing PWL point (0.105161,5)
V11: Removing PWL point (0.105278,0)
V11: Removing PWL point (0.105305,5)
V11: Removing PWL point (0.105422,0)
V11: Removing PWL point (0.105446,5)
V11: Removing PWL point (0.105566,0)
V11: Removing PWL point (0.10559,5)
V11: Removing PWL point (0.105706,0)
V11: Removing PWL point (0.10573,5)
V11: Removing PWL point (0.10585,0)
V11: Removing PWL point (0.105874,5)
V11: Removing PWL point (0.105994,0)
V11: Removing PWL point (0.106018,5)
V11: Removing PWL point (0.106138,0)
V11: Removing PWL point (0.106159,5)
V11: Removing PWL point (0.106279,0)
V11: Removing PWL point (0.106303,5)
V11: Removing PWL point (0.106423,0)
V11: Removing PWL point (0.106443,5)
V11: Removing PWL point (0.106567,0)
V11: Removing PWL point (0.106587,5)
V11: Removing PWL point (0.106707,0)
V11: Removing PWL point (0.106731,5)
V11: Removing PWL point (0.106851,0)
V11: Removing PWL point (0.106872,5)
V11: Removing PWL point (0.106995,0)
V11: Removing PWL point (0.107016,5)
V11: Removing PWL point (0.107136,0)
V11: Removing PWL point (0.10716,5)
V11: Removing PWL point (0.10728,0)
V11: Removing PWL point (0.107304,5)
V11: Removing PWL point (0.107421,0)
V11: Removing PWL point (0.107445,5)
V11: Removing PWL point (0.107565,0)
V11: Removing PWL point (0.107589,5)
V11: Removing PWL point (0.107709,0)
V11: Removing PWL point (0.107733,5)
V11: Removing PWL point (0.107849,0)
V11: Removing PWL point (0.107877,5)
V11: Removing PWL point (0.107993,0)
V11: Removing PWL point (0.108017,5)
V11: Removing PWL point (0.108134,0)
V11: Removing PWL point (0.108161,5)
V11: Removing PWL point (0.108278,0)
V11: Removing PWL point (0.108305,5)
V11: Removing PWL point (0.108418,0)
V11: Removing PWL point (0.108449,5)
V11: Removing PWL point (0.108562,0)
V11: Removing PWL point (0.108593,5)
V11: Removing PWL point (0.108703,0)
V11: Removing PWL point (0.108737,5)
V11: Removing PWL point (0.108843,0)
V11: Removing PWL point (0.108885,5)
V11: Removing PWL point (0.108984,0)
V11: Removing PWL point (0.109029,5)
V11: Removing PWL point (0.109125,0)
V11: Removing PWL point (0.109173,5)
V11: Removing PWL point (0.109265,0)
V11: Removing PWL point (0.109317,5)
V11: Removing PWL point (0.109406,0)
V11: Removing PWL point (0.109461,5)
V11: Removing PWL point (0.10955,0)
V11: Removing PWL point (0.109608,5)
V11: Removing PWL point (0.10969,0)
V11: Removing PWL point (0.109752,5)
V11: Removing PWL point (0.109831,0)
V11: Removing PWL point (0.109896,5)
V11: Removing PWL point (0.109971,0)
V11: Removing PWL point (0.11004,5)
V11: Removing PWL point (0.110112,0)
V11: Removing PWL point (0.110187,5)
V11: Removing PWL point (0.110253,0)
V11: Removing PWL point (0.110331,5)
V11: Removing PWL point (0.110393,0)
V11: Removing PWL point (0.110475,5)
V11: Removing PWL point (0.110534,0)
V11: Removing PWL point (0.110619,5)
V11: Removing PWL point (0.110674,0)
V11: Removing PWL point (0.110763,5)
V11: Removing PWL point (0.110818,0)
V11: Removing PWL point (0.110911,5)
V11: Removing PWL point (0.110959,0)
V11: Removing PWL point (0.111055,5)
V11: Removing PWL point (0.111099,0)
V11: Removing PWL point (0.111199,5)
V11: Removing PWL point (0.11124,0)
V11: Removing PWL point (0.111343,5)
V11: Removing PWL point (0.111381,0)
V11: Removing PWL point (0.111487,5)
V11: Removing PWL point (0.111521,0)
V11: Removing PWL point (0.111634,5)
V11: Removing PWL point (0.111662,0)
V11: Removing PWL point (0.111778,5)
V11: Removing PWL point (0.111806,0)
V11: Removing PWL point (0.111919,5)
V11: Removing PWL point (0.111946,0)
V11: Removing PWL point (0.112063,5)
V11: Removing PWL point (0.11209,0)
V11: Removing PWL point (0.112207,5)
V11: Removing PWL point (0.112231,0)
V11: Removing PWL point (0.112351,5)
V11: Removing PWL point (0.112375,0)
V11: Removing PWL point (0.112495,5)
V11: Removing PWL point (0.112515,0)
V11: Removing PWL point (0.112635,5)
V11: Removing PWL point (0.112659,0)
V11: Removing PWL point (0.112779,5)
V11: Removing PWL point (0.112803,0)
V11: Removing PWL point (0.112923,5)
V11: Removing PWL point (0.112944,0)
V11: Removing PWL point (0.113064,5)
V11: Removing PWL point (0.113088,0)
V11: Removing PWL point (0.113208,5)
V11: Removing PWL point (0.113232,0)
V11: Removing PWL point (0.113352,5)
V11: Removing PWL point (0.113373,0)
V11: Removing PWL point (0.113493,5)
V11: Removing PWL point (0.113517,0)
V11: Removing PWL point (0.113637,5)
V11: Removing PWL point (0.113661,0)
V11: Removing PWL point (0.113781,5)
V11: Removing PWL point (0.113801,0)
V11: Removing PWL point (0.113921,5)
V11: Removing PWL point (0.113945,0)
V11: Removing PWL point (0.114065,5)
V11: Removing PWL point (0.114089,0)
V11: Removing PWL point (0.114209,5)
V11: Removing PWL point (0.11423,0)
V11: Removing PWL point (0.11435,5)
V11: Removing PWL point (0.114374,0)
V11: Removing PWL point (0.114494,5)
V11: Removing PWL point (0.114518,0)
V11: Removing PWL point (0.114634,5)
V11: Removing PWL point (0.114662,0)
V11: Removing PWL point (0.114778,5)
V11: Removing PWL point (0.114806,0)
V11: Removing PWL point (0.114919,5)
V11: Removing PWL point (0.114946,0)
V11: Removing PWL point (0.115063,5)
V11: Removing PWL point (0.11509,0)
V11: Removing PWL point (0.115207,5)
V11: Removing PWL point (0.115234,0)
V11: Removing PWL point (0.115351,5)
V11: Removing PWL point (0.115375,0)
V11: Removing PWL point (0.115491,5)
V11: Removing PWL point (0.115519,0)
V11: Removing PWL point (0.115635,5)
V11: Removing PWL point (0.115659,0)
V11: Removing PWL point (0.115779,5)
V11: Removing PWL point (0.115803,0)
V11: Removing PWL point (0.115923,5)
V11: Removing PWL point (0.115944,0)
V11: Removing PWL point (0.116064,5)
V11: Removing PWL point (0.116088,0)
V11: Removing PWL point (0.116208,5)
V11: Removing PWL point (0.116232,0)
V11: Removing PWL point (0.116352,5)
V11: Removing PWL point (0.116373,0)
V11: Removing PWL point (0.116493,5)
V11: Removing PWL point (0.116517,0)
V11: Removing PWL point (0.116637,5)
V11: Removing PWL point (0.116661,0)
V11: Removing PWL point (0.116781,5)
V11: Removing PWL point (0.116801,0)
V11: Removing PWL point (0.116921,5)
V11: Removing PWL point (0.116945,0)
V11: Removing PWL point (0.117065,5)
V11: Removing PWL point (0.117089,0)
V11: Removing PWL point (0.117209,5)
V11: Removing PWL point (0.11723,0)
V11: Removing PWL point (0.11735,5)
V11: Removing PWL point (0.117374,0)
V11: Removing PWL point (0.117494,5)
V11: Removing PWL point (0.117518,0)
V11: Removing PWL point (0.117638,5)
V11: Removing PWL point (0.117662,0)
V11: Removing PWL point (0.117778,5)
V11: Removing PWL point (0.117802,0)
V11: Removing PWL point (0.117922,5)
V11: Removing PWL point (0.117946,0)
V11: Removing PWL point (0.118063,5)
V11: Removing PWL point (0.11809,0)
V11: Removing PWL point (0.118207,5)
V11: Removing PWL point (0.118234,0)
V11: Removing PWL point (0.118347,5)
V11: Removing PWL point (0.118378,0)
V11: Removing PWL point (0.118491,5)
V11: Removing PWL point (0.118522,0)
V11: Removing PWL point (0.118632,5)
V11: Removing PWL point (0.118666,0)
V11: Removing PWL point (0.118773,5)
V11: Removing PWL point (0.11881,0)
V11: Removing PWL point (0.118913,5)
V11: Removing PWL point (0.118954,0)
V11: Removing PWL point (0.119054,5)
V11: Removing PWL point (0.119102,0)
V11: Removing PWL point (0.119194,5)
V11: Removing PWL point (0.119246,0)
V11: Removing PWL point (0.119338,5)
V11: Removing PWL point (0.11939,0)
V11: Removing PWL point (0.119479,5)
V11: Removing PWL point (0.119534,0)
V11: Removing PWL point (0.119619,5)
V11: Removing PWL point (0.119678,0)
V11: Removing PWL point (0.11976,5)
V11: Removing PWL point (0.119825,0)
V11: Removing PWL point (0.119901,5)
V11: Removing PWL point (0.119969,0)
Direct Newton iteration for .op point succeeded.
Heightened Def Con from 0.0397764 to 0.0397764

Date: Sun Jan 24 20:58:59 2021
Total elapsed time: 216.355 seconds.

tnom = 27
temp = 27
method = modified trap
totiter = 1531585
traniter = 1531572
tranpoints = 467042
accept = 335963
rejected = 131080
matrix size = 404
fillins = 244
solver = Alternate
Thread vector: 127.4/65.6[12] 25.1/6.9[12] 13.4/5.4[12] 6.9/4.4[9]  2592/500
Matrix Compiler1: 37.32 KB object code size  19.8/16.9/[10.3]
Matrix Compiler2: 37.32 KB object code size  10.2/11.7/[5.5]

